geometry optimzed in LAMMPS
_audit_creation_date              2020-12-01 
_audit_creation_method            'lammps2cif' 
_symmetry_space_group_name_H-M    'P1' 
_symmetry_Int_Tables_number       1 
_symmetry_cell_setting            triclinic 
loop_ 
_symmetry_equiv_pos_as_xyz 
  x,y,z 
_cell_length_a                    36.42194818 
_cell_length_b                    36.08142252539587 
_cell_length_c                    30.584282406527173 
_cell_angle_alpha                 90.6865075104566 
_cell_angle_beta                  90.07601338229999 
_cell_angle_gamma                 90.47301083373719 
loop_ 
_atom_site_label 
_atom_site_type_symbol 
_atom_site_fract_x 
_atom_site_fract_y 
_atom_site_fract_z 
_atom_site_charge 
O1          O  0.46557145  0.78609385  0.17974986    -0.85100
O2          O  0.50470479  0.84623296  0.15382565    -0.82100
C3          C  0.52685760  0.86705822  0.13441522     0.98400
O4          O  0.55001935  0.85290263  0.10826482    -0.82100
O5          O  0.58954306  0.79378986  0.14855834    -0.84800
C6          C  0.59659157  0.76130395  0.16091007     1.02900
O7          O  0.57514713  0.73470802  0.15094819    -0.77600
O8          O  0.51318754  0.75202870  0.19638660    -0.77700
C9          C  0.48553082  0.77034589  0.20801965     1.02900
O10         O  0.45115546  0.76923146  0.08788914    -0.85100
O11         O  0.48687415  0.83152955  0.06248725    -0.82100
C12         C  0.50803474  0.82277375  0.03110418     0.98400
O13         O  0.53647531  0.80409392  0.03745612    -0.82200
O14         O  0.57896657  0.74952936  0.06883863    -0.84800
C15         C  0.56054295  0.72033352  0.05932908     1.02900
O16         O  0.53019637  0.71424185  0.07771672    -0.77600
O17         O  0.46761669  0.72280806  0.12792819    -0.77700
C18         C  0.44548186  0.73689081  0.10111377     1.02800
Cr19       Cr  0.48006983  0.80631570  0.12080343     1.93700
Cr20       Cr  0.56100076  0.79889322  0.09327521     1.93200
Cr21       Cr  0.52136510  0.73436471  0.13671531     1.39100
O22         O  0.52069634  0.78007760  0.11692770    -1.22800
O23         O  0.76578560  0.47395567  0.33077415    -0.85100
O24         O  0.82659057  0.51084453  0.35728212    -0.82100
C25         C  0.84791409  0.53450029  0.37398800     0.98400
O26         O  0.83474099  0.55994139  0.39838562    -0.82100
O27         O  0.77552821  0.60044075  0.35915933    -0.84800
C28         C  0.74313805  0.60835875  0.34793707     1.02900
O29         O  0.71699025  0.58669539  0.35737883    -0.77600
O30         O  0.73598810  0.52407753  0.31143927    -0.77700
C31         C  0.75416419  0.49564814  0.30154009     1.02900
O32         O  0.74749035  0.46291390  0.42275843    -0.85100
O33         O  0.81067832  0.49631252  0.44859941    -0.82100
C34         C  0.80369924  0.51948885  0.47890634     0.98400
O35         O  0.78777741  0.54939669  0.47124218    -0.82200
O36         O  0.73296424  0.59009224  0.43940569    -0.84800
C37         C  0.70435659  0.57130159  0.44937510     1.02900
O38         O  0.69662527  0.54167749  0.42888013    -0.77600
O39         O  0.70429647  0.47853754  0.37774137    -0.77700
C40         C  0.71632095  0.45705063  0.40661922     1.02800
Cr41       Cr  0.78588453  0.48908577  0.39000174     1.93700
Cr42       Cr  0.78154237  0.57215722  0.41453654     1.93200
Cr43       Cr  0.71674964  0.53253425  0.37032764     1.39100
O44         O  0.76175025  0.53125913  0.39179720    -1.22800
O45         O  0.49041225  0.23812303  0.68297209    -0.85100
O46         O  0.56487356  0.22926870  0.67923760    -0.82100
C47         C  0.59552164  0.21672403  0.66729344     0.98400
O48         O  0.59853554  0.19986992  0.63085534    -0.82100
O49         O  0.55195560  0.13662975  0.62559222    -0.84800
C50         C  0.52192947  0.11874325  0.62280536     1.02900
O51         O  0.49510239  0.13273597  0.60318098    -0.77600
O52         O  0.47787615  0.17907847  0.67159732    -0.77700
C53         C  0.48139933  0.20649078  0.69737094     1.02900
O54         O  0.49362370  0.27187425  0.59591986    -0.85100
O55         O  0.56816388  0.26621914  0.59769287    -0.82100
C56         C  0.57756858  0.25579590  0.55975450     0.98400
O57         O  0.57212402  0.22265737  0.54743653    -0.82200
O58         O  0.53105651  0.15936660  0.53788541    -0.84800
C59         C  0.50387444  0.17489098  0.51995700     1.02900
O60         O  0.47959174  0.19033647  0.54328148    -0.77600
O61         O  0.45066757  0.23212481  0.61120912    -0.77700
C62         C  0.46037164  0.26223414  0.59416480     1.02800
Cr63       Cr  0.52864271  0.24825987  0.63709337     1.93700
Cr64       Cr  0.56082685  0.18096450  0.58749474     1.93200
Cr65       Cr  0.47875969  0.18488212  0.60751366     1.39100
O66         O  0.52319128  0.20472340  0.61099350    -1.22800
O67         O  0.73375777  0.49320898  0.80891727    -0.85100
O68         O  0.74007624  0.41833890  0.81403939    -0.82100
C69         C  0.75314302  0.38778313  0.82567544     0.98400
O70         O  0.76823985  0.38485110  0.86280713    -0.82100
O71         O  0.82898444  0.43306826  0.87600480    -0.84800
C72         C  0.84626606  0.46314819  0.88267396     1.02900
O73         O  0.83038017  0.49000382  0.90078417    -0.77600
O74         O  0.79080190  0.50581104  0.82788910    -0.77700
C75         C  0.76661050  0.50140614  0.79879510     1.02900
O76         O  0.69221092  0.49205628  0.89198312    -0.85100
O77         O  0.69751199  0.41679240  0.89216404    -0.82100
C78         C  0.70674901  0.40515563  0.92940108     0.98400
O79         O  0.73894441  0.40955521  0.94388283    -0.82200
O80         O  0.79896963  0.45288502  0.96088532    -0.84800
C81         C  0.78253538  0.48048886  0.97763329     1.02900
O82         O  0.76816507  0.50482428  0.95372483    -0.77600
O83         O  0.73349146  0.53424115  0.88092987    -0.77700
C84         C  0.70231056  0.52541340  0.89502312     1.02800
Cr85       Cr  0.71885615  0.45566642  0.85401386     1.93700
Cr86       Cr  0.78244421  0.42286892  0.90869447     1.93200
Cr87       Cr  0.77924213  0.50572123  0.89050150     1.39100
O88         O  0.75997519  0.46086559  0.88430324    -1.22800
O89         O  0.50265436  0.21519717  0.16643448    -0.85100
O90         O  0.46607807  0.15408526  0.14120103    -0.82100
C91         C  0.44108625  0.13250911  0.12865124     0.98400
O92         O  0.41428994  0.14501666  0.10652906    -0.82100
O93         O  0.37625230  0.19944631  0.15640279    -0.84800
C94         C  0.36965982  0.23031063  0.17451953     1.02900
O95         O  0.38764927  0.25897389  0.16368553    -0.77600
O96         O  0.45474121  0.24278047  0.19533917    -0.77700
C97         C  0.48354201  0.22425316  0.19965666     1.02900
O98         O  0.50189525  0.23782872  0.07375131    -0.85100
O99         O  0.46912967  0.17413344  0.04917133    -0.82100
C100        C  0.44421149  0.18393636  0.02265242     0.98400
O101        O  0.41519905  0.19817571  0.03665313    -0.82200
O102        O  0.37480991  0.24795487  0.08060831    -0.84800
C103        C  0.39117396  0.27789562  0.06983413     1.02900
O104        O  0.42215752  0.28596044  0.08584856    -0.77600
O105        O  0.49046979  0.27945415  0.12378748    -0.77700
C106        C  0.50734678  0.26950116  0.08958225     1.02800
Cr107      Cr  0.48198411  0.19698526  0.10815443     1.93700
Cr108      Cr  0.39806919  0.19876592  0.09687351     1.93200
Cr109      Cr  0.43892027  0.26379510  0.14036216     1.39100
O110        O  0.43959748  0.21948440  0.11529636    -1.22800
O111        O  0.20089046  0.51778662  0.33970214    -0.85100
O112        O  0.13826532  0.48424154  0.36707631    -0.82100
C113        C  0.11650088  0.46030457  0.38177580     0.98400
O114        O  0.12891321  0.43389714  0.40488813    -0.82100
O115        O  0.17961618  0.38908614  0.35714894    -0.84800
C116        C  0.20941963  0.38011708  0.33892921     1.02900
O117        O  0.23824501  0.39920564  0.34523721    -0.77600
O118        O  0.22327025  0.46659942  0.31118992    -0.77700
C119        C  0.20786595  0.49735136  0.30676290     1.02900
O120        O  0.22546809  0.51884385  0.43086406    -0.85100
O121        O  0.16061803  0.49098266  0.45752994    -0.82100
C122        C  0.17027292  0.46736807  0.48548673     0.98400
O123        O  0.18373117  0.43697654  0.47348589    -0.82200
O124        O  0.23006634  0.39068949  0.43053275    -0.84800
C125        C  0.26201479  0.40471858  0.43659870     1.02900
O126        O  0.27033987  0.43520070  0.41938806    -0.77600
O127        O  0.26438059  0.50319536  0.38003312    -0.77700
C128        C  0.25681113  0.52142383  0.41434012     1.02800
Cr129      Cr  0.18291118  0.49971905  0.39825825     1.93700
Cr130      Cr  0.18174711  0.41563143  0.41458022     1.93200
Cr131      Cr  0.24591931  0.45153436  0.36578684     1.39100
O132        O  0.20315589  0.45545311  0.39265257    -1.22800
O133        O  0.23128338  0.50101460  0.82340915    -0.85100
O134        O  0.21698921  0.57458396  0.82254225    -0.82100
C135        C  0.20355953  0.60549147  0.83264796     0.98400
O136        O  0.18786605  0.61003118  0.86923365    -0.82100
O137        O  0.12853372  0.55986708  0.88005729    -0.84800
C138        C  0.11255170  0.52912971  0.88646861     1.02900
O139        O  0.12918299  0.50358813  0.90556654    -0.77600
O140        O  0.17397449  0.48617937  0.83670536    -0.77700
C141        C  0.20007417  0.49010906  0.81001902     1.02900
O142        O  0.26795952  0.51093443  0.90726656    -0.85100
O143        O  0.25675764  0.58599582  0.90218403    -0.82100
C144        C  0.24632807  0.59778450  0.93917299     0.98400
O145        O  0.21458618  0.59024758  0.95322936    -0.82200
O146        O  0.15506777  0.54554978  0.96742835    -0.84800
C147        C  0.17149409  0.51936505  0.98634513     1.02900
O148        O  0.18838606  0.49497606  0.96427853    -0.77600
O149        O  0.22972983  0.46506607  0.89668775    -0.77700
C150        C  0.26092094  0.47674697  0.90846242     1.02800
Cr151      Cr  0.24022291  0.54263902  0.86605457     1.93700
Cr152      Cr  0.17304974  0.57370180  0.91552399     1.93200
Cr153      Cr  0.18155361  0.49046668  0.90043505     1.39100
O154        O  0.19842983  0.53598259  0.89410603    -1.22800
O155        O  0.48246913  0.74472357  0.70422525    -0.85100
O156        O  0.40832480  0.75147506  0.69844149    -0.82100
C157        C  0.37769837  0.76236927  0.68487249     0.98400
O158        O  0.37502433  0.77598791  0.64712087    -0.82100
O159        O  0.42070329  0.83883612  0.63943349    -0.84800
C160        C  0.45025019  0.85711175  0.63518575     1.02900
O161        O  0.47727777  0.84260176  0.61601272    -0.77600
O162        O  0.49646847  0.80171725  0.68573624    -0.77700
C163        C  0.49123870  0.77776738  0.71478344     1.02900
O164        O  0.48079556  0.70241261  0.62162730    -0.85100
O165        O  0.40682843  0.70762074  0.61908748    -0.82100
C166        C  0.39792181  0.71609407  0.58040802     0.98400
O167        O  0.40271969  0.74856453  0.56656142    -0.82200
O168        O  0.44174101  0.81176616  0.55315530    -0.84800
C169        C  0.46895764  0.79590020  0.53544848     1.02900
O170        O  0.49337531  0.78137139  0.55895140    -0.77600
O171        O  0.52344504  0.74451226  0.62904995    -0.77700
C172        C  0.51371203  0.71229429  0.61737241     1.02800
Cr173      Cr  0.44519576  0.72959654  0.65873073     1.93700
Cr174      Cr  0.41269703  0.79256804  0.60373872     1.93200
Cr175      Cr  0.49474107  0.79098655  0.62276683     1.39100
O176        O  0.45060529  0.77081210  0.62857074    -1.22800
C177        C  0.23410927  0.70194617  0.80510465    -0.01700
C178        C  0.25259179  0.69540509  0.76538957     0.06900
C179        C  0.24683835  0.66162304  0.74312999    -0.07700
C180        C  0.22608491  0.63319698  0.76188938     0.04300
C181        C  0.21198473  0.63782515  0.80468601    -0.14900
C182        C  0.21408720  0.67319625  0.82454499    -0.08300
C183        C  0.28119827  0.72115330  0.74862253     0.05200
C184        C  0.31345609  0.72656299  0.77317982    -0.09400
C185        C  0.34470418  0.74295815  0.75457441     0.00200
C186        C  0.34380446  0.75450958  0.71046257     0.00100
C187        C  0.31018500  0.75244203  0.68768348    -0.12900
C188        C  0.27926251  0.73554719  0.70614098     0.00600
C189        C  0.37757829  0.74593110  0.78094994     0.39900
C190        C  0.24641408  0.73135200  0.68001569     0.36500
C191        C  0.23608365  0.73761163  0.82685362     0.36200
C192        C  0.22075214  0.59928964  0.73696909     0.37000
N193        N  0.40390136  0.74818763  0.80210090    -0.43800
N194        N  0.22008723  0.72766950  0.65914228    -0.44300
N195        N  0.21632654  0.57235818  0.71664013    -0.41600
N196        N  0.23731451  0.76634586  0.84402816    -0.43100
H197        H  0.20257156  0.67771445  0.85682529     0.13100
H198        H  0.26012902  0.65675328  0.71188919     0.09600
H199        H  0.31501075  0.71574903  0.80605949     0.10700
H200        H  0.30863418  0.76143227  0.65403334     0.16500
C201        C  0.32703018  0.59812411  0.43020429    -0.01700
C202        C  0.32951444  0.59998938  0.47629641     0.06900
C203        C  0.31002574  0.57415999  0.50130050    -0.07700
C204        C  0.28770209  0.54730878  0.48135886     0.04300
C205        C  0.28390011  0.54639342  0.43540735    -0.14900
C206        C  0.30434176  0.57129855  0.41009847    -0.08300
C207        C  0.35030551  0.62976727  0.49965947     0.05200
C208        C  0.34070482  0.66681850  0.49275939    -0.09400
C209        C  0.35655138  0.69554440  0.51765647     0.00200
C210        C  0.38174971  0.68721084  0.55129756     0.00100
C211        C  0.39202166  0.65015732  0.55738142    -0.12900
C212        C  0.37696059  0.62160645  0.53157328     0.00600
C213        C  0.34534082  0.73302184  0.50886330     0.39900
C214        C  0.38961817  0.58421784  0.53801204     0.36500
C215        C  0.34734115  0.62349480  0.40303884     0.36200
C216        C  0.27024740  0.51998513  0.50874578     0.37000
N217        N  0.33649298  0.76305749  0.50157891    -0.43800
N218        N  0.39978014  0.55425616  0.54300989    -0.44300
N219        N  0.25697568  0.49768364  0.53068456    -0.41600
N220        N  0.36359638  0.64398309  0.38142958    -0.43100
H221        H  0.30166922  0.57057791  0.37477489     0.13100
H222        H  0.31183249  0.57532587  0.53669947     0.09600
H223        H  0.31997658  0.67325700  0.46857389     0.10700
H224        H  0.41216235  0.64346150  0.58217390     0.16500
C225        C  0.15281555  0.49464955  0.70079011    -0.01700
C226        C  0.18114957  0.48480043  0.67188043     0.06900
C227        C  0.21547228  0.47459695  0.68845421    -0.07700
C228        C  0.22201455  0.47461782  0.73354334     0.04300
C229        C  0.19363166  0.48470848  0.76272477    -0.14900
C230        C  0.15910013  0.49426924  0.74585273    -0.08300
C231        C  0.17447920  0.48145948  0.62440814     0.05200
C232        C  0.17559911  0.51306009  0.59813121    -0.09400
C233        C  0.17163192  0.50986056  0.55256084     0.00200
C234        C  0.16675313  0.47437036  0.53306118     0.00100
C235        C  0.16365439  0.44326638  0.56009823    -0.12900
C236        C  0.16755482  0.44653618  0.60526248     0.00600
C237        C  0.17519851  0.54294960  0.52675314     0.39900
C238        C  0.16513401  0.41351468  0.63136739     0.36500
C239        C  0.11719626  0.50534931  0.68477596     0.36200
C240        C  0.25775002  0.46351072  0.74892632     0.37000
N241        N  0.17813778  0.56956196  0.50624521    -0.43800
N242        N  0.16321060  0.38711407  0.65237473    -0.44300
N243        N  0.28634781  0.45464408  0.76138137    -0.41600
N244        N  0.08875156  0.51405620  0.67171716    -0.43100
H245        H  0.13731037  0.50277782  0.76782349     0.13100
H246        H  0.23705004  0.46633212  0.66604581     0.09600
H247        H  0.18062086  0.54002081  0.61314261     0.11500
H248        H  0.15940495  0.41591975  0.54574361     0.16500
C249        C  0.16868192  0.48612371  0.19468980    -0.01700
C250        C  0.18162415  0.51813253  0.17380360     0.06900
C251        C  0.20067045  0.54556112  0.19785433    -0.07700
C252        C  0.20826641  0.54051670  0.24234191     0.04300
C253        C  0.19658816  0.50765299  0.26262656    -0.14900
C254        C  0.17620731  0.48119903  0.23880850    -0.08300
C255        C  0.17965317  0.52051500  0.12592157     0.05200
C256        C  0.14812995  0.53476775  0.10631897    -0.09400
C257        C  0.14419997  0.53400167  0.06079408     0.00200
C258        C  0.17224114  0.51840294  0.03449040     0.00100
C259        C  0.20356603  0.50390413  0.05457059    -0.12900
C260        C  0.20747637  0.50493058  0.09987566     0.00600
C261        C  0.11072393  0.54828575  0.04229858     0.39900
C262        C  0.24005691  0.48934986  0.11907472     0.36500
C263        C  0.14959111  0.45699598  0.17083419     0.36200
C264        C  0.23046751  0.56769638  0.26540621     0.37000
N265        N  0.08384069  0.55974542  0.02766589    -0.43800
N266        N  0.26613034  0.47682823  0.13447712    -0.44300
N267        N  0.24846389  0.58936820  0.28385024    -0.41600
N268        N  0.13454654  0.43357433  0.15162519    -0.43100
H269        H  0.16683457  0.45609448  0.25467082     0.13100
H270        H  0.21107363  0.56993292  0.18137705     0.09600
H271        H  0.12638911  0.54590934  0.12667935     0.10700
H272        H  0.22547010  0.49233838  0.03478703     0.16500
C273        C  0.38402620  0.35650342  0.98969789    -0.01700
C274        C  0.34607890  0.36332273  0.98920621     0.06900
C275        C  0.32231975  0.33966495  0.01213563    -0.07700
C276        C  0.33595378  0.31041635  0.03699976     0.04300
C277        C  0.37425267  0.30496144  0.03983264    -0.14900
C278        C  0.39779949  0.32785722  0.01526208    -0.08300
C279        C  0.33000170  0.39416929  0.96414281     0.05200
C280        C  0.30776130  0.38526214  0.92817861    -0.09400
C281        C  0.28746700  0.41252223  0.90729277     0.00200
C282        C  0.28828862  0.44949238  0.92334795     0.00100
C283        C  0.31287093  0.45899877  0.95717409    -0.12900
C284        C  0.33391124  0.43163547  0.97746292     0.00600
C285        C  0.26599062  0.40167163  0.86941984     0.39900
C286        C  0.35811987  0.44238248  0.01289738     0.36500
C287        C  0.40916285  0.37793520  0.96347496     0.36200
C288        C  0.31003633  0.28740138  0.06012106     0.37000
N289        N  0.24889553  0.39306586  0.83897648    -0.43800
N290        N  0.37784901  0.45108944  0.04095177    -0.44300
N291        N  0.28902011  0.26895675  0.07829521    -0.41600
N292        N  0.42927640  0.39494132  0.94221882    -0.43100
H293        H  0.42721380  0.32339976  0.01606027     0.13100
H294        H  0.29295484  0.34439168  0.01095635     0.09600
H295        H  0.30561944  0.35666905  0.91703957     0.10700
H296        H  0.31427732  0.48735516  0.96923743     0.16500
C297        C  0.31699605  0.27099504  0.26865822    -0.01700
C298        C  0.28044071  0.26171687  0.25737377     0.06900
C299        C  0.27391912  0.23665258  0.22270524    -0.07700
C300        C  0.30315783  0.22287936  0.19745778     0.04300
C301        C  0.33947986  0.23480418  0.20654454    -0.14900
C302        C  0.34602626  0.25758350  0.24328755    -0.08300
C303        C  0.24996438  0.28464417  0.27485611     0.05200
C304        C  0.23926785  0.31496166  0.24977524    -0.09400
C305        C  0.22161163  0.34527708  0.26911909     0.00200
C306        C  0.21328722  0.34503923  0.31411188     0.00100
C307        C  0.21989555  0.31268567  0.33797218    -0.12900
C308        C  0.23833648  0.28257914  0.31872853     0.00600
C309        C  0.21568555  0.37757863  0.24286146     0.39900
C310        C  0.24768877  0.25126912  0.34534980     0.36500
C311        C  0.32510015  0.29744144  0.30328728     0.36200
C312        C  0.29479566  0.19975270  0.15986547     0.37000
N313        N  0.21147718  0.40299586  0.22080113    -0.43800
N314        N  0.25505357  0.22612886  0.36671168    -0.44300
N315        N  0.28802136  0.18127589  0.12968460    -0.41600
N316        N  0.33128844  0.31879355  0.33091795    -0.43100
H317        H  0.37381457  0.26688043  0.25052367     0.13100
H318        H  0.24586433  0.22985400  0.21355333     0.09600
H319        H  0.24818030  0.31667312  0.21599787     0.10700
H320        H  0.21403047  0.31239193  0.37274841     0.16500
C321        C  0.00963842  0.53510074  0.89061403    -0.01700
C322        C  0.99925333  0.50037963  0.87229946     0.06900
C323        C  0.02606396  0.47757011  0.85394725    -0.07700
C324        C  0.06306197  0.48775289  0.85563489     0.04300
C325        C  0.07379827  0.52205832  0.87494809    -0.14900
C326        C  0.04674196  0.54586934  0.89131772    -0.08300
C327        C  0.96050972  0.48752117  0.87134325     0.05200
C328        C  0.93502931  0.50861125  0.84856223    -0.09400
C329        C  0.89777949  0.49954175  0.84930885     0.00200
C330        C  0.88544127  0.46793029  0.87220744     0.00100
C331        C  0.91124325  0.44535417  0.89276632    -0.12900
C332        C  0.94863000  0.45509621  0.89286011     0.00600
C333        C  0.87309628  0.52429034  0.82735948     0.39900
C334        C  0.97382724  0.43288040  0.91764396     0.36500
C335        C  0.98303446  0.55891264  0.91145680     0.36200
C336        C  0.08935021  0.46157995  0.83856930     0.37000
N337        N  0.85468018  0.54519263  0.80936182    -0.43800
N338        N  0.99400995  0.41512332  0.93759857    -0.44300
N339        N  0.10964693  0.43982861  0.82492634    -0.41600
N340        N  0.96162766  0.57781043  0.92829184    -0.43100
H341        H  0.05478888  0.57165589  0.90735611     0.13100
H342        H  0.01808004  0.45120942  0.83919830     0.09600
H343        H  0.94422515  0.53306767  0.83125932     0.10700
H344        H  0.90193249  0.42162759  0.91128801     0.16500
C345        C  0.59025881  0.33140021  0.07303571    -0.01700
C346        C  0.59193079  0.33277095  0.02701176     0.06900
C347        C  0.56442094  0.31533837  0.00199978    -0.07700
C348        C  0.53573996  0.29614536  0.02206672     0.04300
C349        C  0.53448309  0.29377931  0.06814523    -0.14900
C350        C  0.56148894  0.31206773  0.09330764    -0.08300
C351        C  0.62182257  0.35252901  0.00394694     0.05200
C352        C  0.65770146  0.33867069  0.00569871    -0.09400
C353        C  0.68611714  0.35543234  0.98198603     0.00200
C354        C  0.67859116  0.38669801  0.95621022     0.00100
C355        C  0.64273484  0.40054783  0.95481516    -0.12900
C356        C  0.61444916  0.38377259  0.97828343     0.00600
C357        C  0.72202537  0.33874938  0.98259524     0.39900
C358        C  0.57807650  0.39920354  0.97556368     0.36500
C359        C  0.61766026  0.34978705  0.09987072     0.36200
C360        C  0.50726354  0.28020512  0.99461263     0.37000
N361        N  0.75073519  0.32523649  0.98286879    -0.43800
N362        N  0.54893890  0.41156592  0.97317750    -0.44300
N363        N  0.48430505  0.26793128  0.97248271    -0.41600
N364        N  0.63974452  0.36461013  0.12113514    -0.43100
H365        H  0.56074684  0.31028288  0.12866925     0.13100
H366        H  0.56542961  0.31673926  0.96660241     0.09600
H367        H  0.66325516  0.31418456  0.02475582     0.10700
H368        H  0.63676881  0.42467925  0.93528809     0.16500
C369        C  0.47134686  0.03960624  0.67527527    -0.01700
C370        C  0.49234975  0.00879280  0.66215406     0.06900
C371        C  0.52657696  0.01506389  0.64193430    -0.07700
C372        C  0.53875858  0.05109393  0.63221469     0.04300
C373        C  0.51606715  0.08152564  0.64174286    -0.14900
C374        C  0.48304663  0.07539682  0.66451829    -0.08300
C375        C  0.47746298  0.97013855  0.66426171     0.05200
C376        C  0.44405722  0.96156716  0.64292571    -0.09400
C377        C  0.43252322  0.92465748  0.63651724     0.00200
C378        C  0.45480837  0.89565155  0.65119296     0.00100
C379        C  0.48676799  0.90426815  0.67515526    -0.12900
C380        C  0.49799539  0.94102633  0.68219628     0.00600
C381        C  0.39985925  0.91721060  0.61102275     0.39900
C382        C  0.53137809  0.94802614  0.70655551     0.36500
C383        C  0.43740878  0.03518624  0.69911207     0.36200
C384        C  0.57317264  0.05575500  0.60960217     0.37000
N385        N  0.37375720  0.91118212  0.59043791    -0.43800
N386        N  0.55819112  0.95349752  0.72601212    -0.44300
N387        N  0.60088905  0.05929333  0.59161932    -0.41600
N388        N  0.41026801  0.03169160  0.71832285    -0.43100
H389        H  0.46565244  0.09873560  0.67272361     0.13100
H390        H  0.54299714  0.99162918  0.63155654     0.09600
H391        H  0.42811603  0.98362952  0.62868798     0.10700
H392        H  0.50412759  0.88206649  0.68648780     0.16500
C393        C  0.36785713  0.30324423  0.56746062    -0.01700
C394        C  0.37503655  0.32250062  0.52844608     0.06900
C395        C  0.41118340  0.32362729  0.51237523    -0.07700
C396        C  0.43972384  0.30519440  0.53380315     0.04300
C397        C  0.43231967  0.28531534  0.57242006    -0.14900
C398        C  0.39627952  0.28477162  0.58878945    -0.08300
C399        C  0.34566848  0.34285235  0.50482508     0.05200
C400        C  0.34970394  0.38115794  0.49956095    -0.09400
C401        C  0.32303551  0.40184242  0.47787776     0.00200
C402        C  0.29070397  0.38425615  0.46142665     0.00100
C403        C  0.28692366  0.34568013  0.46648675    -0.12900
C404        C  0.31423187  0.32493266  0.48723102     0.00600
C405        C  0.33030422  0.44096840  0.47297140     0.39900
C406        C  0.31010977  0.28512359  0.48840723     0.36500
C407        C  0.33164653  0.30231478  0.58659669     0.36200
C408        C  0.47573140  0.30537751  0.51403440     0.37000
N409        N  0.33698722  0.47214020  0.46889236    -0.43800
N410        N  0.30686347  0.25321127  0.48938063    -0.44300
N411        N  0.50449913  0.30535577  0.49799349    -0.41600
N412        N  0.30256244  0.30128843  0.60174508    -0.43100
H413        H  0.39022152  0.26969362  0.61843295     0.13100
H414        H  0.41696841  0.33842539  0.48246034     0.09600
H415        H  0.37399638  0.39503210  0.51250624     0.10700
H416        H  0.26309607  0.33140444  0.45298780     0.16500
C417        C  0.69184965  0.25100354  0.69100847    -0.01700
C418        C  0.68869839  0.26395521  0.73456449     0.06900
C419        C  0.65687048  0.25495279  0.75821245    -0.07700
C420        C  0.62717598  0.23648780  0.73812624     0.04300
C421        C  0.62897922  0.22644309  0.69331940    -0.14900
C422        C  0.66229764  0.23218227  0.67095317    -0.08300
C423        C  0.71455130  0.29218386  0.75364522     0.05200
C424        C  0.71793710  0.32638947  0.73264407    -0.09400
C425        C  0.73405592  0.35710053  0.75374009     0.00200
C426        C  0.74669515  0.35425082  0.79741460     0.00100
C427        C  0.74685272  0.31890965  0.81661241    -0.12900
C428        C  0.73100377  0.28804018  0.79508045     0.00600
C429        C  0.73519267  0.39161994  0.73037970     0.39900
C430        C  0.73097832  0.25260137  0.81649882     0.36500
C431        C  0.72445139  0.25830811  0.66560352     0.36200
C432        C  0.59461886  0.22980514  0.76384882     0.37000
N433        N  0.73576318  0.41934269  0.71176995    -0.43800
N434        N  0.73112333  0.22408709  0.83342666    -0.44300
N435        N  0.56852030  0.22463137  0.78450549    -0.41600
N436        N  0.75053185  0.26426756  0.64519939    -0.43100
H437        H  0.66440160  0.22451824  0.63666030     0.13100
H438        H  0.65412825  0.26469189  0.79172982     0.09600
H439        H  0.70571927  0.32985483  0.70060535     0.10700
H440        H  0.75709190  0.31575254  0.84964683     0.16500
C441        C  0.46662894  0.18696691  0.31159024    -0.01700
C442        C  0.50056776  0.19278936  0.33260793     0.06900
C443        C  0.53082624  0.20561314  0.30838723    -0.07700
C444        C  0.52686955  0.21452290  0.26394425     0.04300
C445        C  0.49205313  0.21128344  0.24402544    -0.14900
C446        C  0.46246653  0.19683350  0.26803430    -0.08300
C447        C  0.50322196  0.18881288  0.38061148     0.05200
C448        C  0.51941322  0.15719563  0.39817088    -0.09400
C449        C  0.51878236  0.15107406  0.44339063     0.00200
C450        C  0.50188076  0.17716181  0.47169788     0.00100
C451        C  0.48538845  0.20853513  0.45370215    -0.12900
C452        C  0.48604365  0.21458393  0.40873496     0.00600
C453        C  0.53415684  0.11710049  0.45951703     0.39900
C454        C  0.46879790  0.24747290  0.39209720     0.36500
C455        C  0.43553807  0.17136306  0.33443027     0.36200
C456        C  0.55805448  0.22887105  0.24034314     0.37000
N457        N  0.54624474  0.08972349  0.47234600    -0.43800
N458        N  0.45487115  0.27375760  0.37878506    -0.44300
N459        N  0.58305213  0.24034686  0.22133411    -0.41600
N460        N  0.41081431  0.15867707  0.35286675    -0.43100
H461        H  0.43579047  0.19331062  0.25259580     0.13100
H462        H  0.55705629  0.20987204  0.32455629     0.09600
H463        H  0.53171478  0.13685934  0.37640179     0.10700
H464        H  0.47259335  0.22895341  0.47493932     0.16500
C465        C  0.45078086  0.22462263  0.81367570    -0.01700
C466        C  0.46616889  0.19418855  0.83579804     0.06900
C467        C  0.48623823  0.16793269  0.81190418    -0.07700
C468        C  0.49161073  0.17167807  0.76697372     0.04300
C469        C  0.47563266  0.20157855  0.74467423    -0.14900
C470        C  0.45570301  0.22807386  0.76846007    -0.08300
C471        C  0.46116786  0.18879908  0.88356939     0.05200
C472        C  0.42548650  0.18681563  0.90025200    -0.09400
C473        C  0.41916600  0.18348468  0.94504313     0.00200
C474        C  0.44925247  0.18089656  0.97449818     0.00100
C475        C  0.48500364  0.18061958  0.95734763    -0.12900
C476        C  0.49121199  0.18509713  0.91248413     0.00600
C477        C  0.38138596  0.18373717  0.95945029     0.39900
C478        C  0.52863610  0.18799624  0.89731899     0.36500
C479        C  0.43045034  0.25298975  0.83666555     0.36200
C480        C  0.51625614  0.14621433  0.74549288     0.37000
N481        N  0.35106844  0.18438693  0.97071523    -0.43800
N482        N  0.55863522  0.19031903  0.88517330    -0.44300
N483        N  0.53676541  0.12605106  0.72916787    -0.41600
N484        N  0.41398107  0.27563252  0.85499926    -0.43100
H485        H  0.44393106  0.25151474  0.75164626     0.13100
H486        H  0.49822536  0.14454127  0.82861351     0.09600
H487        H  0.40220750  0.18862644  0.87799536     0.10700
H488        H  0.50843313  0.17926525  0.97939992     0.16500
C489        C  0.93579780  0.48272662  0.34845345    -0.01700
C490        C  0.96295954  0.50407338  0.36986679     0.06900
C491        C  0.95303488  0.53833593  0.38871970    -0.07700
C492        C  0.91621699  0.55043868  0.38842416     0.04300
C493        C  0.88849045  0.52818374  0.36848514    -0.14900
C494        C  0.89941670  0.49495343  0.34741331    -0.08300
C495        C  0.00173384  0.49081106  0.37243909     0.05200
C496        C  0.02623203  0.50011930  0.33911615    -0.09400
C497        C  0.06284069  0.48825367  0.33993279     0.00200
C498        C  0.07609658  0.46646075  0.37499303     0.00100
C499        C  0.05080940  0.45570098  0.40738814    -0.12900
C500        C  0.01398877  0.46762177  0.40625844     0.00600
C501        C  0.08596704  0.49936019  0.30407691     0.39900
C502        C  0.98919964  0.45628375  0.44043104     0.36500
C503        C  0.94435378  0.44727286  0.32874333     0.36200
C504        C  0.90777901  0.58534347  0.40943317     0.37000
N505        N  0.10382108  0.50887432  0.27499502    -0.43800
N506        N  0.96903996  0.44729261  0.46760170    -0.44300
N507        N  0.90107231  0.61339306  0.42621905    -0.41600
N508        N  0.95110473  0.41874218  0.31319627    -0.43100
H509        H  0.87914524  0.47714860  0.33160585     0.13100
H510        H  0.97398597  0.55527495  0.40458732     0.09600
H511        H  0.01670123  0.51702259  0.31234380     0.10700
H512        H  0.06011904  0.43930269  0.43466929     0.16500
C513        C  0.63353423  0.39902121  0.43740589    -0.01700
C514        C  0.65008711  0.36741341  0.45524384     0.06900
C515        C  0.68832140  0.36422086  0.45458045    -0.07700
C516        C  0.71040730  0.39267235  0.43819439     0.04300
C517        C  0.69405017  0.42500070  0.42131838    -0.14900
C518        C  0.65554321  0.42729885  0.42013093    -0.08300
C519        C  0.62885948  0.33956680  0.47998807     0.05200
C520        C  0.62344437  0.30385397  0.46243797    -0.09400
C521        C  0.60680844  0.27584809  0.48726551     0.00200
C522        C  0.59533094  0.28361933  0.53071377     0.00100
C523        C  0.60075052  0.31979267  0.54763410    -0.12900
C524        C  0.61749092  0.34741303  0.52296008     0.00600
C525        C  0.60272471  0.23955740  0.46737003     0.39900
C526        C  0.62435402  0.38322257  0.54317774     0.36500
C527        C  0.59418938  0.40356546  0.43787721     0.36200
C528        C  0.74971991  0.38783827  0.43957638     0.37000
N529        N  0.59970304  0.21051187  0.45122738    -0.43800
N530        N  0.63010278  0.41186414  0.55931203    -0.44300
N531        N  0.78120373  0.38391571  0.44094370    -0.41600
N532        N  0.56267772  0.40741103  0.43833810    -0.43100
H533        H  0.64261982  0.45188829  0.40735081     0.13100
H534        H  0.70101148  0.33999385  0.46862520     0.09600
H535        H  0.63286577  0.29771819  0.42953819     0.10700
H536        H  0.59245871  0.32667989  0.58075391     0.16500
C537        C  0.79430149  0.47550985  0.58813896    -0.01700
C538        C  0.80447088  0.50544347  0.61599366     0.06900
C539        C  0.82170914  0.53663415  0.59816900    -0.07700
C540        C  0.82543049  0.54001882  0.55297151     0.04300
C541        C  0.81199986  0.51165623  0.52488143    -0.14900
C542        C  0.79823626  0.47882566  0.54280736    -0.08300
C543        C  0.79549423  0.50581861  0.66326199     0.05200
C544        C  0.81112187  0.47915933  0.69025387    -0.09400
C545        C  0.80244423  0.47796925  0.73468029     0.00200
C546        C  0.77739169  0.50362418  0.75266112     0.00100
C547        C  0.76204464  0.53064005  0.72594898    -0.12900
C548        C  0.77125015  0.53224438  0.68154863     0.00600
C549        C  0.81819602  0.44884965  0.76047724     0.39900
C550        C  0.75502357  0.56084348  0.65531675     0.36500
C551        C  0.77743372  0.44220817  0.60476214     0.36200
C552        C  0.84171862  0.57354723  0.53605678     0.37000
N553        N  0.83088949  0.42511653  0.78044057    -0.43800
N554        N  0.74227081  0.58395389  0.63438080    -0.44300
N555        N  0.85478548  0.60041505  0.52256241    -0.41600
N556        N  0.76409001  0.41522155  0.61753384    -0.43100
H557        H  0.78770182  0.45705597  0.52135204     0.13100
H558        H  0.83071222  0.55912959  0.61955117     0.09600
H559        H  0.82991950  0.45902368  0.67643562     0.10700
H560        H  0.74297377  0.55048454  0.73980610     0.16500
C561        C  0.75488845  0.45275805  0.18861436    -0.01700
C562        C  0.77301428  0.48084519  0.16499496     0.06900
C563        C  0.78737237  0.51186669  0.18708671    -0.07700
C564        C  0.78277197  0.51599844  0.23204010     0.04300
C565        C  0.76291970  0.48903806  0.25543031    -0.14900
C566        C  0.74987883  0.45708060  0.23381962    -0.08300
C567        C  0.77590553  0.47977187  0.11694535     0.05200
C568        C  0.74421324  0.48594975  0.09214154    -0.09400
C569        C  0.74612471  0.48822866  0.04662456     0.00200
C570        C  0.78014569  0.48330428  0.02542212     0.00100
C571        C  0.81183657  0.47710705  0.05030161    -0.12900
C572        C  0.81008546  0.47610594  0.09589632     0.00600
C573        C  0.71267137  0.49439498  0.02244706     0.39900
C574        C  0.84360861  0.47159761  0.12046298     0.36500
C575        C  0.74169487  0.41933322  0.16721271     0.36200
C576        C  0.79954034  0.54767677  0.25366868     0.37000
N577        N  0.68581347  0.49945045  0.00324390    -0.43800
N578        N  0.87047341  0.46841372  0.14026228    -0.44300
N579        N  0.81351052  0.57279816  0.27089803    -0.41600
N580        N  0.73140448  0.39238525  0.15015076    -0.43100
H581        H  0.73507126  0.43609713  0.25198152     0.13100
H582        H  0.80180115  0.53316443  0.16896611     0.09600
H583        H  0.71804875  0.48955770  0.10850727     0.10700
H584        H  0.83801308  0.47327203  0.03404033     0.16500
C585        C  0.61354718  0.59120234  0.50428761    -0.01700
C586        C  0.62339451  0.61885077  0.53523830     0.06900
C587        C  0.66080681  0.62691306  0.54212401    -0.07700
C588        C  0.68794518  0.61074703  0.51586956     0.04300
C589        C  0.67780613  0.58547380  0.48226773    -0.14900
C590        C  0.64067526  0.57475752  0.47833957    -0.08300
C591        C  0.59532362  0.64244394  0.55717718     0.05200
C592        C  0.56728090  0.62627825  0.58232298    -0.09400
C593        C  0.53982432  0.64813565  0.60161808     0.00200
C594        C  0.54122298  0.68713159  0.59756586     0.00100
C595        C  0.56934569  0.70311450  0.57254094    -0.12900
C596        C  0.59569478  0.68126117  0.55176140     0.00600
C597        C  0.51078315  0.62985120  0.62538811     0.39900
C598        C  0.62179840  0.69926254  0.52330331     0.36500
C599        C  0.57571054  0.58068139  0.49665112     0.36200
C600        C  0.72581778  0.62075912  0.52405853     0.37000
N601        N  0.48731373  0.61514405  0.64406414    -0.43800
N602        N  0.64268054  0.71351958  0.50035491    -0.44300
N603        N  0.75617772  0.62874264  0.53067405    -0.41600
N604        N  0.54542577  0.57201800  0.49073844    -0.43100
H605        H  0.63241527  0.55480914  0.45331662     0.13100
H606        H  0.66869469  0.64721145  0.56693645     0.09600
H607        H  0.56662803  0.59647733  0.58651855     0.10700
H608        H  0.57009731  0.73288886  0.56797318     0.16500
C609        C  0.48731416  0.95721021  0.17615951    -0.01700
C610        C  0.48988398  0.98017011  0.13915887     0.06900
C611        C  0.50998959  0.96745524  0.10284038    -0.07700
C612        C  0.52536662  0.93180318  0.10183967     0.04300
C613        C  0.52090877  0.90792419  0.13797006    -0.14900
C614        C  0.50269585  0.92170244  0.17526260    -0.08300
C615        C  0.47306758  0.01795443  0.13849223     0.05200
C616        C  0.48362588  0.04379675  0.17064317    -0.09400
C617        C  0.47058774  0.08013102  0.17042279     0.00200
C618        C  0.44679133  0.09211676  0.13660848     0.00100
C619        C  0.43468015  0.06567526  0.10550776    -0.12900
C620        C  0.44756163  0.02891109  0.10623199     0.00600
C621        C  0.48338765  0.10448961  0.20507863     0.39900
C622        C  0.43447412  0.00301588  0.07332500     0.36500
C623        C  0.46735391  0.96860345  0.21474159     0.36200
C624        C  0.54336052  0.91988027  0.06212957     0.37000
N625        N  0.49442558  0.12318910  0.23319402    -0.43800
N626        N  0.42399202  0.98221452  0.04696081    -0.44300
N627        N  0.55773086  0.91062502  0.03013574    -0.41600
N628        N  0.45150265  0.97779966  0.24573845    -0.43100
H629        H  0.49882650  0.90388725  0.20324252     0.13100
H630        H  0.51308003  0.98524367  0.07472471     0.09600
H631        H  0.50308021  0.03577782  0.19561988     0.10700
H632        H  0.41670273  0.07412964  0.07924255     0.16500
C633        C  0.29573072  0.63764929  0.03841619    -0.01700
C634        C  0.32353807  0.65930396  0.01900497     0.06900
C635        C  0.32504958  0.66170662  0.97333457    -0.07700
C636        C  0.29964891  0.64284230  0.94683580     0.04300
C637        C  0.27206879  0.62049883  0.96608066    -0.14900
C638        C  0.27019394  0.61859701  0.01193616    -0.08300
C639        C  0.35179465  0.67960682  0.04510960     0.05200
C640        C  0.37725218  0.65965152  0.06977551    -0.09400
C641        C  0.40729253  0.67754867  0.08993196     0.00200
C642        C  0.41238537  0.71627382  0.08506147     0.00100
C643        C  0.38549616  0.73621745  0.06234903    -0.12900
C644        C  0.35561267  0.71837296  0.04241775     0.00600
C645        C  0.43267123  0.65514898  0.11418732     0.39900
C646        C  0.32941497  0.74045644  0.01889052     0.36500
C647        C  0.29263760  0.63492519  0.08531384     0.36200
C648        C  0.30223136  0.64773287  0.90009515     0.37000
N649        N  0.45275215  0.63701650  0.13380977    -0.43800
N650        N  0.30851857  0.75817714  0.99995418    -0.44300
N651        N  0.30440599  0.65169858  0.86268862    -0.41600
N652        N  0.29015314  0.63272520  0.12291317    -0.43100
H653        H  0.24922767  0.60157022  0.02713685     0.13100
H654        H  0.34637812  0.67839568  0.95828916     0.09600
H655        H  0.37433145  0.62978463  0.07200789     0.10700
H656        H  0.38799269  0.76601287  0.05948763     0.16500
C657        C  0.61151884  0.67580533  0.96437904    -0.01700
C658        C  0.61008939  0.63787962  0.97536547     0.06900
C659        C  0.59023767  0.62716156  0.01238688    -0.07700
C660        C  0.57289538  0.65345521  0.03908326     0.04300
C661        C  0.57584815  0.69166153  0.02944634    -0.14900
C662        C  0.59492790  0.70236646  0.99171036    -0.08300
C663        C  0.63257448  0.60955726  0.95204763     0.05200
C664        C  0.67082466  0.61363465  0.95311221    -0.09400
C665        C  0.69373717  0.58651723  0.93525152     0.00200
C666        C  0.67844985  0.55444190  0.91478253     0.00100
C667        C  0.64003262  0.55015135  0.91408683    -0.12900
C668        C  0.61711705  0.57729886  0.93261649     0.00600
C669        C  0.73285870  0.59151469  0.94104015     0.39900
C670        C  0.57786055  0.57163326  0.93113688     0.36500
C671        C  0.62938933  0.68793089  0.92488265     0.36200
C672        C  0.55433891  0.64046557  0.07775729     0.37000
N673        N  0.76415977  0.59547812  0.94601022    -0.43800
N674        N  0.54637224  0.56713743  0.93016791    -0.44300
N675        N  0.53949399  0.62997675  0.10872089    -0.41600
N676        N  0.64343324  0.69753368  0.89299440    -0.43100
H677        H  0.59681061  0.73148772  0.98354172     0.13100
H678        H  0.58943983  0.59817854  0.02141077     0.09600
H679        H  0.68291966  0.63768828  0.96939166     0.10700
H680        H  0.62786396  0.52563914  0.89895832     0.16500
C681        C  0.66622282  0.75619642  0.25248589    -0.01700
C682        C  0.68502374  0.72326371  0.24078319     0.06900
C683        C  0.67852770  0.70750905  0.19931697    -0.07700
C684        C  0.65225392  0.72208435  0.17123415     0.04300
C685        C  0.63071356  0.75246038  0.18481262    -0.14900
C686        C  0.63909508  0.77038659  0.22458634    -0.08300
C687        C  0.70610773  0.70092355  0.27306717     0.05200
C688        C  0.68853606  0.69135571  0.31214656    -0.09400
C689        C  0.70224745  0.66347455  0.33873572     0.00200
C690        C  0.73389400  0.64358060  0.32604102     0.00100
C691        C  0.75346035  0.65518025  0.28908770    -0.12900
C692        C  0.73990066  0.68369491  0.26265732     0.00600
C693        C  0.68256924  0.65537198  0.37853249     0.39900
C694        C  0.76040656  0.69386862  0.22420193     0.36500
C695        C  0.67341953  0.77518118  0.29346047     0.36200
C696        C  0.64759141  0.70475402  0.12876566     0.37000
N697        N  0.66655876  0.64941861  0.41036745    -0.43800
N698        N  0.77668615  0.70197812  0.19323767    -0.44300
N699        N  0.64465692  0.69076379  0.09469804    -0.41600
N700        N  0.67913103  0.79041024  0.32631792    -0.43100
H701        H  0.62307693  0.79410192  0.23500230     0.13100
H702        H  0.69241442  0.68224069  0.18966309     0.09600
H703        H  0.66257924  0.70401417  0.32071088     0.10700
H704        H  0.77813859  0.64066852  0.27945544     0.16500
C705        C  0.52782494  0.83509250  0.91312585    -0.01700
C706        C  0.49328247  0.82731286  0.89456384     0.06900
C707        C  0.46190458  0.82691082  0.92113439    -0.07700
C708        C  0.46525460  0.83026914  0.96671298     0.04300
C709        C  0.50053318  0.83328355  0.98559048    -0.14900
C710        C  0.53115512  0.83828310  0.95831400    -0.08300
C711        C  0.49067340  0.81471599  0.84870197     0.05200
C712        C  0.49902127  0.77766173  0.83893640    -0.09400
C713        C  0.50011214  0.76482027  0.79563040     0.00200
C714        C  0.49305183  0.78957240  0.76124350     0.00100
C715        C  0.48449053  0.82670990  0.77148634    -0.12900
C716        C  0.48321212  0.83935687  0.81478371     0.00600
C717        C  0.50934472  0.72650250  0.78767715     0.39900
C718        C  0.47438953  0.87764394  0.82371806     0.36500
C719        C  0.56063314  0.83686427  0.88671051     0.36200
C720        C  0.43261157  0.82781895  0.99320547     0.37000
N721        N  0.51672703  0.69573842  0.78157667    -0.43800
N722        N  0.46724247  0.90830310  0.83092988    -0.44300
N723        N  0.40636365  0.82639441  0.01440271    -0.41600
N724        N  0.58695231  0.83817645  0.86561550    -0.43100
H725        H  0.55831934  0.84162857  0.97251061     0.13100
H726        H  0.43518888  0.82170713  0.90651167     0.09600
H727        H  0.50520166  0.75887299  0.86533096     0.10700
H728        H  0.47793589  0.84584018  0.74565679     0.16500
C729        C  0.43726682  0.78554032  0.41851508    -0.01700
C730        C  0.47068605  0.78456409  0.39542831     0.06900
C731        C  0.50390278  0.78844541  0.41849520    -0.07700
C732        C  0.50427632  0.79228962  0.46408030     0.04300
C733        C  0.47079094  0.79355278  0.48721613    -0.14900
C734        C  0.43756523  0.79053670  0.46388956    -0.08300
C735        C  0.47170884  0.77912352  0.34730567     0.05200
C736        C  0.45473476  0.80508837  0.32022439    -0.09400
C737        C  0.45722173  0.80215603  0.27458362     0.00200
C738        C  0.47718287  0.77269538  0.25540850     0.00100
C739        C  0.49282357  0.74599672  0.28279030    -0.12900
C740        C  0.49042057  0.74903252  0.32818062     0.00600
C741        C  0.44066480  0.83078264  0.24871392     0.39900
C742        C  0.50780802  0.72107633  0.35436030     0.36500
C743        C  0.40247771  0.77963738  0.39667199     0.36200
C744        C  0.53931428  0.79524962  0.48602794     0.37000
N745        N  0.42734822  0.85379340  0.22811939    -0.43800
N746        N  0.52202131  0.69879086  0.37520783    -0.44300
N747        N  0.56744608  0.79745513  0.50354291    -0.41600
N748        N  0.37465779  0.77472054  0.37912785    -0.43100
H749        H  0.41166226  0.79071818  0.48134523     0.13100
H750        H  0.52968302  0.78806521  0.40077138     0.09600
H751        H  0.44041137  0.82836690  0.33488120     0.10700
H752        H  0.50782634  0.72289755  0.26874251     0.16500
loop_ 
_geom_bond_atom_site_label_1 
_geom_bond_atom_site_label_2 
_geom_bond_distance 
_geom_bond_site_symmetry_2 
_ccdc_geom_bond_type 
O1          Cr19   2.022       .  S
O1            C9   1.271       .  A
O2          Cr19   1.960       .  S
O2            C3   1.253       .  A
C3            O4   1.269       .  A
C3          C613   1.495       .  S
O4          Cr20   2.040       .  S
O5          Cr20   1.995       .  S
O5            C6   1.264       .  A
C6            O7   1.266       .  A
C6          C685   1.480       .  S
O7          Cr21   2.006       .  S
O8          Cr21   1.950       .  S
O8            C9   1.259       .  A
C9          C738   1.483       .  S
O10         Cr19   1.963       .  S
O10          C18   1.255       .  A
O11         Cr19   2.026       .  S
O11          C12   1.270       .  A
C12          O13   1.257       .  A
C12         C709   1.473   1_554  S
O13         Cr20   1.938       .  S
O14         Cr20   2.037       .  S
O14          C15   1.275       .  A
C15          O16   1.260       .  A
C15         C661   1.485       .  S
O16         Cr21   1.965       .  S
O17         Cr21   2.015       .  S
O17          C18   1.263       .  A
C18         C642   1.491       .  S
Cr19         O22   1.767       .  S
Cr20         O22   1.771       .  S
Cr21         O22   1.764       .  S
O23         Cr41   2.020       .  S
O23          C31   1.270       .  A
O24         Cr41   1.954       .  S
O24          C25   1.253       .  A
C25          O26   1.273       .  A
C25         C493   1.507       .  S
O26         Cr42   2.050       .  S
O27         Cr42   2.001       .  S
O27          C28   1.264       .  A
C28          O29   1.263       .  A
C28         C690   1.485       .  S
O29         Cr43   1.999       .  S
O30         Cr43   1.955       .  S
O30          C31   1.260       .  A
C31         C565   1.463       .  S
O32         Cr41   1.964       .  S
O32          C40   1.253       .  A
O33         Cr41   2.019       .  S
O33          C34   1.268       .  A
C34          O35   1.254       .  A
C34         C541   1.469       .  S
O35         Cr42   1.942       .  S
O36         Cr42   2.034       .  S
O36          C37   1.278       .  A
C37          O38   1.262       .  A
C37         C589   1.486       .  S
O38         Cr43   1.961       .  S
O39         Cr43   2.012       .  S
O39          C40   1.263       .  A
C40         C517   1.482       .  S
Cr41         O44   1.764       .  S
Cr42         O44   1.771       .  S
Cr43         O44   1.766       .  S
O45         Cr63   2.013       .  S
O45          C53   1.269       .  A
O46         Cr63   1.976       .  S
O46          C47   1.261       .  A
C47          O48   1.268       .  A
C47         C421   1.492       .  S
O48         Cr64   2.017       .  S
O49         Cr64   2.014       .  S
O49          C50   1.267       .  A
C50          O51   1.258       .  A
C50         C373   1.483       .  S
O51         Cr65   1.981       .  S
O52         Cr65   1.974       .  S
O52          C53   1.263       .  A
C53         C469   1.475       .  S
O54         Cr63   1.994       .  S
O54          C62   1.258       .  A
O55         Cr63   1.988       .  S
O55          C56   1.264       .  A
C56          O57   1.263       .  A
C56         C522   1.492       .  S
O57         Cr64   1.992       .  S
O58         Cr64   2.010       .  S
O58          C59   1.269       .  A
C59          O60   1.266       .  A
C59         C450   1.481       .  S
O60         Cr65   1.977       .  S
O61         Cr65   1.997       .  S
O61          C62   1.259       .  A
C62         C397   1.485       .  S
Cr63         O66   1.763       .  S
Cr64         O66   1.771       .  S
Cr65         O66   1.767       .  S
O67         Cr85   2.017       .  S
O67          C75   1.270       .  A
O68         Cr85   1.971       .  S
O68          C69   1.259       .  A
C69          O70   1.267       .  A
C69         C426   1.495       .  S
O70         Cr86   2.015       .  S
O71         Cr86   2.003       .  S
O71          C72   1.264       .  A
C72          O73   1.256       .  A
C72         C330   1.472       .  S
O73         Cr87   1.977       .  S
O74         Cr87   1.961       .  S
O74          C75   1.259       .  A
C75         C546   1.468       .  S
O76         Cr85   2.000       .  S
O76          C84   1.258       .  A
O77         Cr85   1.989       .  S
O77          C78   1.265       .  A
C78          O79   1.261       .  A
C78         C354   1.474       .  S
O79         Cr86   1.976       .  S
O80         Cr86   2.007       .  S
O80          C81   1.269       .  A
C81          O82   1.266       .  A
C81         C570   1.467   1_556  S
O82         Cr87   1.976       .  S
O83         Cr87   1.989       .  S
O83          C84   1.255       .  A
C84         C666   1.490       .  S
Cr85         O88   1.767       .  S
Cr86         O88   1.774       .  S
Cr87         O88   1.767       .  S
O89        Cr107   2.034       .  S
O89          C97   1.273       .  A
O90        Cr107   1.944       .  S
O90          C91   1.250       .  A
C91          O92   1.275       .  A
C91         C618   1.497       .  S
O92        Cr108   2.057       .  S
O93        Cr108   1.987       .  S
O93          C94   1.263       .  A
C94          O95   1.267       .  A
C94         C301   1.482       .  S
O95        Cr109   2.007       .  S
O96        Cr109   1.941       .  S
O96          C97   1.256       .  A
C97         C445   1.474       .  S
O98        Cr107   1.956       .  S
O98         C106   1.250       .  A
O99        Cr107   2.027       .  S
O99         C100   1.272       .  A
C100        O101   1.253       .  A
C100        C474   1.487   1_554  S
O101       Cr108   1.945       .  S
O102       Cr108   2.040       .  S
O102        C103   1.276       .  A
C103        O104   1.260       .  A
C103        C277   1.485       .  S
O104       Cr109   1.957       .  S
O105       Cr109   2.023       .  S
O105        C106   1.264       .  A
C106        C349   1.475       .  S
Cr107       O110   1.763       .  S
Cr108       O110   1.770       .  S
Cr109       O110   1.765       .  S
O111       Cr129   2.021       .  S
O111        C119   1.268       .  A
O112       Cr129   1.958       .  S
O112        C113   1.255       .  A
C113        O114   1.278       .  A
C113        C498   1.505       .  S
O114       Cr130   2.061       .  S
O115       Cr130   1.992       .  S
O115        C116   1.264       .  A
C116        O117   1.264       .  A
C116        C306   1.476       .  S
O117       Cr131   2.000       .  S
O118       Cr131   1.947       .  S
O118        C119   1.256       .  A
C119        C253   1.464       .  S
O120       Cr129   1.958       .  S
O120        C128   1.252       .  A
O121       Cr129   2.014       .  S
O121        C122   1.266       .  A
C122        O123   1.256       .  A
C122        C234   1.480       .  S
O123       Cr130   1.952       .  S
O124       Cr130   2.044       .  S
O124        C125   1.278       .  A
C125        O126   1.260       .  A
C125        C402   1.496       .  S
O126       Cr131   1.963       .  S
O127       Cr131   2.019       .  S
O127        C128   1.264       .  A
C128        C205   1.473       .  S
Cr129       O132   1.771       .  S
Cr130       O132   1.769       .  S
Cr131       O132   1.768       .  S
O133       Cr151   2.002       .  S
O133        C141   1.266       .  A
O134       Cr151   1.966       .  S
O134        C135   1.257       .  A
C135        O136   1.267       .  A
C135        C181   1.485       .  S
O136       Cr152   2.012       .  S
O137       Cr152   2.006       .  S
O137        C138   1.266       .  A
C138        O139   1.256       .  A
C138        C325   1.474       .  S
O139       Cr153   1.975       .  S
O140       Cr153   1.972       .  S
O140        C141   1.262       .  A
C141        C229   1.475       .  S
O142       Cr151   1.992       .  S
O142        C150   1.259       .  A
O143       Cr151   1.993       .  S
O143        C144   1.264       .  A
C144        O145   1.263       .  A
C144        C637   1.482       .  S
O145       Cr152   1.985       .  S
O146       Cr152   2.003       .  S
O146        C147   1.268       .  A
C147        O148   1.267       .  A
C147        C258   1.474   1_556  S
O148       Cr153   1.973       .  S
O149       Cr153   1.989       .  S
O149        C150   1.259       .  A
C150        C282   1.481       .  S
Cr151       O154   1.764       .  S
Cr152       O154   1.771       .  S
Cr153       O154   1.762       .  S
O155       Cr173   2.010       .  S
O155        C163   1.270       .  A
O156       Cr173   1.975       .  S
O156        C157   1.257       .  A
C157        O158   1.264       .  A
C157        C186   1.490       .  S
O158       Cr174   2.003       .  S
O159       Cr174   2.003       .  S
O159        C160   1.265       .  A
C160        O161   1.261       .  A
C160        C378   1.477       .  S
O161       Cr175   1.986       .  S
O162       Cr175   1.961       .  S
O162        C163   1.260       .  A
C163        C714   1.480       .  S
O164       Cr173   1.982       .  S
O164        C172   1.255       .  A
O165       Cr173   2.001       .  S
O165        C166   1.268       .  A
C166        O167   1.261       .  A
C166        C210   1.481       .  S
O167       Cr174   1.973       .  S
O168       Cr174   2.003       .  S
O168        C169   1.268       .  A
C169        O170   1.264       .  A
C169        C733   1.478       .  S
O170       Cr175   1.979       .  S
O171       Cr175   1.994       .  S
O171        C172   1.260       .  A
C172        C594   1.483       .  S
Cr173       O176   1.769       .  S
Cr174       O176   1.769       .  S
Cr175       O176   1.769       .  S
C177        C178   1.408       .  A
C177        C182   1.402       .  A
C177        C191   1.443       .  S
C178        C183   1.486       .  S
C178        C179   1.403       .  A
C179        C180   1.398       .  A
C179        H198   1.085       .  S
C180        C181   1.415       .  A
C180        C192   1.445       .  S
C181        C182   1.408       .  A
C182        H197   1.084       .  S
C183        C184   1.405       .  A
C183        C188   1.407       .  A
C184        C185   1.403       .  A
C184        H199   1.085       .  S
C185        C186   1.417       .  A
C185        C189   1.445       .  S
C186        C187   1.409       .  A
C187        C188   1.399       .  A
C187        H200   1.084       .  S
C188        C190   1.444       .  S
C189        N193   1.158       .  T
C190        N194   1.157       .  T
C191        N196   1.157       .  T
C192        N195   1.157       .  T
C201        C202   1.413       .  A
C201        C206   1.403       .  A
C201        C215   1.444       .  S
C202        C207   1.485       .  S
C202        C203   1.402       .  A
C203        C204   1.394       .  A
C203        H222   1.085       .  S
C204        C205   1.412       .  A
C204        C216   1.445       .  S
C205        C206   1.403       .  A
C206        H221   1.085       .  S
C207        C208   1.403       .  A
C207        C212   1.411       .  A
C208        C209   1.399       .  A
C208        H223   1.085       .  S
C209        C210   1.414       .  A
C209        C213   1.444       .  S
C210        C211   1.406       .  A
C211        C212   1.398       .  A
C211        H224   1.085       .  S
C212        C214   1.445       .  S
C213        N217   1.157       .  T
C214        N218   1.157       .  T
C215        N220   1.157       .  T
C216        N219   1.157       .  T
C225        C226   1.405       .  A
C225        C230   1.397       .  A
C225        C239   1.443       .  S
C226        C231   1.475       .  S
C226        C227   1.402       .  A
C227        C228   1.399       .  A
C227        H246   1.085       .  S
C228        C229   1.414       .  A
C228        C240   1.445       .  S
C229        C230   1.406       .  A
C230        H245   1.084       .  S
C231        C232   1.403       .  A
C231        C236   1.404       .  A
C232        C233   1.404       .  A
C232        H247   1.085       .  S
C233        C234   1.416       .  A
C233        C237   1.444       .  S
C234        C235   1.406       .  A
C235        C236   1.392       .  A
C235        H248   1.085       .  S
C236        C238   1.444       .  S
C237        N241   1.157       .  T
C238        N242   1.157       .  T
C239        N244   1.157       .  T
C240        N243   1.157       .  T
C249        C250   1.405       .  A
C249        C254   1.390       .  A
C249        C263   1.445       .  S
C250        C255   1.470       .  S
C250        C251   1.404       .  A
C251        C252   1.402       .  A
C251        H270   1.085       .  S
C252        C253   1.408       .  A
C252        C264   1.443       .  S
C253        C254   1.401       .  A
C254        H269   1.085       .  S
C255        C256   1.399       .  A
C255        C260   1.407       .  A
C256        C257   1.399       .  A
C256        H271   1.085       .  S
C257        C258   1.417       .  A
C257        C261   1.445       .  S
C258        C259   1.403       .  A
C259        C260   1.393       .  A
C259        H272   1.085       .  S
C260        C262   1.444       .  S
C261        N265   1.158       .  T
C262        N266   1.157       .  T
C263        N268   1.157       .  T
C264        N267   1.157       .  T
C273        C274   1.406       .  A
C273        C278   1.399   1_556  A
C273        C287   1.444       .  S
C274        C279   1.483       .  S
C274        C275   1.405   1_556  A
C275        C276   1.402       .  A
C275        H294   1.085       .  S
C276        C277   1.413       .  A
C276        C288   1.443       .  S
C277        C278   1.410       .  A
C278        H293   1.085       .  S
C279        C280   1.398       .  A
C279        C284   1.413       .  A
C280        C281   1.396       .  A
C280        H295   1.085       .  S
C281        C282   1.416       .  A
C281        C285   1.445       .  S
C282        C283   1.405       .  A
C283        C284   1.405       .  A
C283        H296   1.084       .  S
C284        C286   1.444   1_556  S
C285        N289   1.157       .  T
C286        N290   1.157       .  T
C287        N292   1.157       .  T
C288        N291   1.157       .  T
C297        C298   1.412       .  A
C297        C302   1.399       .  A
C297        C311   1.446       .  S
C298        C303   1.486       .  S
C298        C299   1.404       .  A
C299        C300   1.407       .  A
C299        H318   1.084       .  S
C300        C301   1.414       .  A
C300        C312   1.443       .  S
C301        C302   1.403       .  A
C302        H317   1.085       .  S
C303        C304   1.401       .  A
C303        C308   1.410       .  A
C304        C305   1.399       .  A
C304        H319   1.086       .  S
C305        C306   1.410       .  A
C305        C309   1.441       .  S
C306        C307   1.406       .  A
C307        C308   1.405       .  A
C307        H320   1.085       .  S
C308        C310   1.443       .  S
C309        N313   1.156       .  T
C310        N314   1.157       .  T
C311        N316   1.157       .  T
C312        N315   1.157       .  T
C321        C322   1.415   1_455  A
C321        C326   1.403       .  A
C321        C335   1.444   1_455  S
C322        C327   1.482       .  S
C322        C323   1.396   1_655  A
C323        C324   1.395       .  A
C323        H342   1.085       .  S
C324        C325   1.417       .  A
C324        C336   1.444       .  S
C325        C326   1.402       .  A
C326        H341   1.085       .  S
C327        C328   1.396       .  A
C327        C332   1.414       .  A
C328        C329   1.393       .  A
C328        H343   1.085       .  S
C329        C330   1.416       .  A
C329        C333   1.443       .  S
C330        C331   1.402       .  A
C331        C332   1.404       .  A
C331        H344   1.084       .  S
C332        C334   1.444       .  S
C333        N337   1.157       .  T
C334        N338   1.157       .  T
C335        N340   1.157       .  T
C336        N339   1.157       .  T
C345        C346   1.410       .  A
C345        C350   1.403       .  A
C345        C359   1.443       .  S
C346        C351   1.481       .  S
C346        C347   1.400       .  A
C347        C348   1.395       .  A
C347        H366   1.085   1_554  S
C348        C349   1.414       .  A
C348        C360   1.445   1_554  S
C349        C350   1.404       .  A
C350        H365   1.085       .  S
C351        C352   1.404       .  A
C351        C356   1.409   1_554  A
C352        C353   1.402   1_554  A
C352        H367   1.085       .  S
C353        C354   1.412       .  A
C353        C357   1.444       .  S
C354        C355   1.403       .  A
C355        C356   1.395       .  A
C355        H368   1.085       .  S
C356        C358   1.444       .  S
C357        N361   1.157       .  T
C358        N362   1.157       .  T
C359        N364   1.157       .  T
C360        N363   1.157       .  T
C369        C370   1.409       .  A
C369        C374   1.400       .  A
C369        C383   1.445       .  S
C370        C375   1.494   1_545  S
C370        C371   1.410       .  A
C371        C372   1.405       .  A
C371        H390   1.084   1_545  S
C372        C373   1.408       .  A
C372        C384   1.442       .  S
C373        C374   1.408       .  A
C374        H389   1.085       .  S
C375        C376   1.410       .  A
C375        C380   1.410       .  A
C376        C377   1.405       .  A
C376        H391   1.084       .  S
C377        C378   1.407       .  A
C377        C381   1.443       .  S
C378        C379   1.405       .  A
C379        C380   1.399       .  A
C379        H392   1.084       .  S
C380        C382   1.444       .  S
C381        N385   1.157       .  T
C382        N386   1.157       .  T
C383        N388   1.157       .  T
C384        N387   1.157       .  T
C393        C394   1.412       .  A
C393        C398   1.401       .  A
C393        C407   1.444       .  S
C394        C399   1.493       .  S
C394        C395   1.406       .  A
C395        C396   1.404       .  A
C395        H414   1.085       .  S
C396        C397   1.414       .  A
C396        C408   1.445       .  S
C397        C398   1.406       .  A
C398        H413   1.085       .  S
C399        C400   1.400       .  A
C399        C404   1.413       .  A
C400        C401   1.401       .  A
C400        H415   1.085       .  S
C401        C402   1.422       .  A
C401        C405   1.444       .  S
C402        C403   1.408       .  A
C403        C404   1.405       .  A
C403        H416   1.084       .  S
C404        C406   1.444       .  S
C405        N409   1.157       .  T
C406        N410   1.157       .  T
C407        N412   1.157       .  T
C408        N411   1.158       .  T
C417        C418   1.412       .  A
C417        C422   1.404       .  A
C417        C431   1.444       .  S
C418        C423   1.494       .  S
C418        C419   1.405       .  A
C419        C420   1.403       .  A
C419        H438   1.085       .  S
C420        C421   1.415       .  A
C420        C432   1.444       .  S
C421        C422   1.409       .  A
C422        H437   1.084       .  S
C423        C424   1.403       .  A
C423        C428   1.411       .  A
C424        C425   1.400       .  A
C424        H439   1.085       .  S
C425        C426   1.417       .  A
C425        C429   1.444       .  S
C426        C427   1.410       .  A
C427        C428   1.407       .  A
C427        H440   1.084       .  S
C428        C430   1.444       .  S
C429        N433   1.157       .  T
C430        N434   1.157       .  T
C431        N436   1.157       .  T
C432        N435   1.157       .  T
C441        C442   1.406       .  A
C441        C446   1.391       .  A
C441        C455   1.445       .  S
C442        C447   1.480       .  S
C442        C443   1.407       .  A
C443        C444   1.408       .  A
C443        H462   1.084       .  S
C444        C445   1.409       .  A
C444        C456   1.442       .  S
C445        C446   1.405       .  A
C446        H461   1.086       .  S
C447        C448   1.401       .  A
C447        C452   1.410       .  A
C448        C449   1.403       .  A
C448        H463   1.085       .  S
C449        C450   1.416       .  A
C449        C453   1.444       .  S
C450        C451   1.404       .  A
C451        C452   1.395       .  A
C451        H464   1.085       .  S
C452        C454   1.445       .  S
C453        N457   1.157       .  T
C454        N458   1.157       .  T
C455        N460   1.157       .  T
C456        N459   1.157       .  T
C465        C466   1.416       .  A
C465        C470   1.402       .  A
C465        C479   1.445       .  S
C466        C471   1.487       .  S
C466        C467   1.401       .  A
C467        C468   1.396       .  A
C467        H486   1.086       .  S
C468        C469   1.412       .  A
C468        C480   1.443       .  S
C469        C470   1.402       .  A
C470        H485   1.086       .  S
C471        C472   1.398       .  A
C471        C476   1.414       .  A
C472        C473   1.396       .  A
C472        H487   1.089       .  S
C473        C474   1.422       .  A
C473        C477   1.445       .  S
C474        C475   1.405       .  A
C475        C476   1.402       .  A
C475        H488   1.089       .  S
C476        C478   1.444       .  S
C477        N481   1.157       .  T
C478        N482   1.157       .  T
C479        N484   1.157       .  T
C480        N483   1.157       .  T
C489        C490   1.405       .  A
C489        C494   1.400       .  A
C489        C503   1.444       .  S
C490        C495   1.497   1_655  S
C490        C491   1.408       .  A
C491        C492   1.414       .  A
C491        H510   1.084       .  S
C492        C493   1.418       .  A
C492        C504   1.443       .  S
C493        C494   1.415       .  A
C494        H509   1.084       .  S
C495        C496   1.398       .  A
C495        C500   1.412       .  A
C496        C497   1.404       .  A
C496        H511   1.085       .  S
C497        C498   1.423       .  A
C497        C501   1.442       .  S
C498        C499   1.409       .  A
C499        C500   1.412       .  A
C499        H512   1.084       .  S
C500        C502   1.443   1_455  S
C501        N505   1.156       .  T
C502        N506   1.157       .  T
C503        N508   1.157       .  T
C504        N507   1.157       .  T
C513        C514   1.410       .  A
C513        C518   1.401       .  A
C513        C527   1.444       .  S
C514        C519   1.479       .  S
C514        C515   1.398       .  A
C515        C516   1.397       .  A
C515        H534   1.085       .  S
C516        C517   1.417       .  A
C516        C528   1.444       .  S
C517        C518   1.406       .  A
C518        H533   1.085       .  S
C519        C520   1.402       .  A
C519        C524   1.405       .  A
C520        C521   1.405       .  A
C520        H535   1.084       .  S
C521        C522   1.419       .  A
C521        C525   1.444       .  S
C522        C523   1.411       .  A
C523        C524   1.394       .  A
C523        H536   1.084       .  S
C524        C526   1.445       .  S
C525        N529   1.157       .  T
C526        N530   1.157       .  T
C527        N532   1.157       .  T
C528        N531   1.157       .  T
C537        C538   1.414       .  A
C537        C542   1.400       .  A
C537        C551   1.443       .  S
C538        C543   1.483       .  S
C538        C539   1.401       .  A
C539        C540   1.396       .  A
C539        H558   1.085       .  S
C540        C541   1.412       .  A
C540        C552   1.445       .  S
C541        C542   1.401       .  A
C542        H557   1.085       .  S
C543        C544   1.399       .  A
C543        C548   1.416       .  A
C544        C545   1.397       .  A
C544        H559   1.085       .  S
C545        C546   1.412       .  A
C545        C549   1.444       .  S
C546        C547   1.399       .  A
C547        C548   1.401       .  A
C547        H560   1.085       .  S
C548        C550   1.444       .  S
C549        N553   1.157       .  T
C550        N554   1.157       .  T
C551        N556   1.157       .  T
C552        N555   1.157       .  T
C561        C562   1.412       .  A
C561        C566   1.402       .  A
C561        C575   1.444       .  S
C562        C567   1.474       .  S
C562        C563   1.398       .  A
C563        C564   1.392       .  A
C563        H582   1.085       .  S
C564        C565   1.410       .  A
C564        C576   1.444       .  S
C565        C566   1.401       .  A
C566        H581   1.085       .  S
C567        C568   1.401       .  A
C567        C572   1.409       .  A
C568        C569   1.397       .  A
C568        H583   1.085       .  S
C569        C570   1.411       .  A
C569        C573   1.445       .  S
C570        C571   1.403       .  A
C571        C572   1.397       .  A
C571        H584   1.085       .  S
C572        C574   1.444       .  S
C573        N577   1.157       .  T
C574        N578   1.157       .  T
C575        N580   1.157       .  T
C576        N579   1.157       .  T
C585        C586   1.411       .  A
C585        C590   1.400       .  A
C585        C599   1.444       .  S
C586        C591   1.491       .  S
C586        C587   1.406       .  A
C587        C588   1.401       .  A
C587        H606   1.085       .  S
C588        C589   1.412       .  A
C588        C600   1.444       .  S
C589        C590   1.408       .  A
C590        H605   1.085       .  S
C591        C592   1.406       .  A
C591        C596   1.412       .  A
C592        C593   1.405       .  A
C592        H607   1.084       .  S
C593        C594   1.414       .  A
C593        C597   1.444       .  S
C594        C595   1.404       .  A
C595        C596   1.396       .  A
C595        H608   1.085       .  S
C596        C598   1.445       .  S
C597        N601   1.157       .  T
C598        N602   1.157       .  T
C599        N604   1.157       .  T
C600        N603   1.157       .  T
C609        C610   1.413       .  A
C609        C614   1.403       .  A
C609        C623   1.444       .  S
C610        C615   1.500   1_565  S
C610        C611   1.406       .  A
C611        C612   1.407       .  A
C611        H630   1.085       .  S
C612        C613   1.418       .  A
C612        C624   1.444       .  S
C613        C614   1.408       .  A
C614        H629   1.085       .  S
C615        C616   1.398       .  A
C615        C620   1.416       .  A
C616        C617   1.398       .  A
C616        H631   1.085       .  S
C617        C618   1.422       .  A
C617        C621   1.443       .  S
C618        C619   1.407       .  A
C619        C620   1.411       .  A
C619        H632   1.084       .  S
C620        C622   1.443       .  S
C621        N625   1.156       .  T
C622        N626   1.157   1_545  T
C623        N628   1.157       .  T
C624        N627   1.157       .  T
C633        C634   1.410       .  A
C633        C638   1.403       .  A
C633        C647   1.443       .  S
C634        C639   1.485       .  S
C634        C635   1.402   1_554  A
C635        C636   1.397       .  A
C635        H654   1.085       .  S
C636        C637   1.416       .  A
C636        C648   1.446       .  S
C637        C638   1.407   1_556  A
C638        H653   1.085       .  S
C639        C640   1.403       .  A
C639        C644   1.408       .  A
C640        C641   1.404       .  A
C640        H655   1.085       .  S
C641        C642   1.418       .  A
C641        C645   1.443       .  S
C642        C643   1.408       .  A
C643        C644   1.396       .  A
C643        H656   1.083       .  S
C644        C646   1.445       .  S
C645        N649   1.157       .  T
C646        N650   1.157   1_554  T
C647        N652   1.157       .  T
C648        N651   1.157       .  T
C657        C658   1.414       .  A
C657        C662   1.405       .  A
C657        C671   1.444       .  S
C658        C663   1.490       .  S
C658        C659   1.401   1_556  A
C659        C660   1.399       .  A
C659        H678   1.085       .  S
C660        C661   1.416       .  A
C660        C672   1.444       .  S
C661        C662   1.404   1_554  A
C662        H677   1.085       .  S
C663        C664   1.400       .  A
C663        C668   1.413       .  A
C664        C665   1.398       .  A
C664        H679   1.085       .  S
C665        C666   1.419       .  A
C665        C669   1.445       .  S
C666        C667   1.407       .  A
C667        C668   1.407       .  A
C667        H680   1.084       .  S
C668        C670   1.443       .  S
C669        N673   1.157       .  T
C670        N674   1.157       .  T
C671        N676   1.157       .  T
C672        N675   1.157       .  T
C681        C682   1.419       .  A
C681        C686   1.408       .  A
C681        C695   1.444       .  S
C682        C687   1.497       .  S
C682        C683   1.403       .  A
C683        C684   1.395       .  A
C683        H702   1.084       .  S
C684        C685   1.412       .  A
C684        C696   1.444       .  S
C685        C686   1.403       .  A
C686        H701   1.085       .  S
C687        C688   1.402       .  A
C687        C692   1.418       .  A
C688        C689   1.396       .  A
C688        H703   1.084       .  S
C689        C690   1.415       .  A
C689        C693   1.445       .  S
C690        C691   1.403       .  A
C691        C692   1.408       .  A
C691        H704   1.083       .  S
C692        C694   1.444       .  S
C693        N697   1.157       .  T
C694        N698   1.157       .  T
C695        N700   1.157       .  T
C696        N699   1.157       .  T
C705        C706   1.404       .  A
C705        C710   1.391       .  A
C705        C719   1.445       .  S
C706        C711   1.472       .  S
C706        C707   1.403       .  A
C707        C708   1.403       .  A
C707        H726   1.084       .  S
C708        C709   1.411       .  A
C708        C720   1.442       .  S
C709        C710   1.405       .  A
C710        H725   1.085       .  S
C711        C712   1.402       .  A
C711        C716   1.402       .  A
C712        C713   1.399       .  A
C712        H727   1.085       .  S
C713        C714   1.413       .  A
C713        C717   1.443       .  S
C714        C715   1.410       .  A
C715        C716   1.396       .  A
C715        H728   1.083       .  S
C716        C718   1.444       .  S
C717        N721   1.157       .  T
C718        N722   1.157       .  T
C719        N724   1.157       .  T
C720        N723   1.157   1_556  T
C729        C730   1.408       .  A
C729        C734   1.397       .  A
C729        C743   1.445       .  S
C730        C735   1.483       .  S
C730        C731   1.405       .  A
C731        C732   1.399       .  A
C731        H750   1.085       .  S
C732        C733   1.412       .  A
C732        C744   1.444       .  S
C733        C734   1.407       .  A
C734        H749   1.085       .  S
C735        C736   1.405       .  A
C735        C740   1.408       .  A
C736        C737   1.402       .  A
C736        H751   1.085       .  S
C737        C738   1.415       .  A
C737        C741   1.444       .  S
C738        C739   1.407       .  A
C739        C740   1.394       .  A
C739        H752   1.085       .  S
C740        C742   1.445       .  S
C741        N745   1.157       .  T
C742        N746   1.157       .  T
C743        N748   1.157       .  T
C744        N747   1.157       .  T
