geometry optimzed in LAMMPS
_audit_creation_date              2020-12-01 
_audit_creation_method            'lammps2cif' 
_symmetry_space_group_name_H-M    'P1' 
_symmetry_Int_Tables_number       1 
_symmetry_cell_setting            triclinic 
loop_ 
_symmetry_equiv_pos_as_xyz 
  x,y,z 
_cell_length_a                    25.88099295 
_cell_length_b                    26.757150798234253 
_cell_length_c                    31.108659616415768 
_cell_angle_alpha                 88.5804684633978 
_cell_angle_beta                  89.36259657156745 
_cell_angle_gamma                 90.24724613367638 
loop_ 
_atom_site_label 
_atom_site_type_symbol 
_atom_site_fract_x 
_atom_site_fract_y 
_atom_site_fract_z 
_atom_site_charge 
O1          O  0.86968714  0.45372450  0.82461069    -0.57200
C2          C  0.76437338  0.42401393  0.93809730     0.75500
O3          O  0.93387545  0.36715626  0.89824510    -0.58300
C4          C  0.88253398  0.49901354  0.82806344     0.75400
C5          C  0.92668444  0.47544494  0.97091210     0.77800
Cd6        Cd  0.86738205  0.43289164  0.90227325     1.37500
O7          O  0.77559332  0.45704194  0.90963624    -0.57200
O8          O  0.94838109  0.46251147  0.93629684    -0.56000
C9          C  0.91053354  0.34129537  0.87090916     0.77800
O10         O  0.87881084  0.46647220  0.97421223    -0.58300
O11         O  0.79928436  0.39292643  0.94786129    -0.56800
O12         O  0.88248894  0.51552276  0.86581360    -0.56800
O13         O  0.86465571  0.35416123  0.86255330    -0.56000
O14         O  0.04941903  0.74616191  0.15382226    -0.57200
C15         C  0.00538900  0.63453845  0.23566965     0.75500
O16         O  0.00211520  0.61490001  0.12607325    -0.58300
C17         C  0.08216583  0.75631255  0.12444440     0.75400
C18         C  0.16163325  0.60661816  0.19894112     0.77800
Cd19       Cd  0.07279905  0.65585374  0.16260676     1.37500
O20         O  0.05141170  0.64929620  0.24085790    -0.57200
O21         O  0.15101146  0.65134303  0.20809076    -0.56000
C22         C  0.02901080  0.59302844  0.09813034     0.77800
O23         O  0.13446269  0.58716059  0.17016816    -0.58300
O24         O  0.98932486  0.63549565  0.19741738    -0.56800
O25         O  0.11215443  0.72143434  0.11411079    -0.56800
O26         O  0.07728213  0.60114793  0.09882070    -0.56000
O27         O  0.65874031  0.77217894  0.16982084    -0.57200
C28         C  0.55556877  0.76990041  0.08853829     0.75500
O29         O  0.54945327  0.62819245  0.15382377    -0.58300
C30         C  0.67951945  0.74995338  0.20158154     0.75400
C31         C  0.50932849  0.73266731  0.23261794     0.77800
Cd32       Cd  0.58474202  0.71302231  0.16493626     1.37500
O33         O  0.56141388  0.72301802  0.08849350    -0.57200
O34         O  0.49807211  0.73727112  0.19327707    -0.56000
C35         C  0.58960896  0.61156987  0.13567288     0.77800
O36         O  0.55337184  0.71478060  0.24058724    -0.58300
O37         O  0.56616752  0.79113901  0.12328661    -0.56800
O38         O  0.65961286  0.70841289  0.21314580    -0.56800
O39         O  0.62857089  0.64025981  0.13355495    -0.56000
O40         O  0.36532756  0.83414829  0.86405586    -0.57200
C41         C  0.26646287  0.92574437  0.94056217     0.75500
O42         O  0.41783989  0.84839629  0.92824198    -0.58300
C43         C  0.37636390  0.85061742  0.82655659     0.75400
C44         C  0.40232921  0.00894797  0.85463160     0.77800
Cd45       Cd  0.36681260  0.91745868  0.89771954     1.37500
O46         O  0.27264843  0.90079276  0.90701624    -0.57200
O47         O  0.35786193  0.99085905  0.84822650    -0.56000
C48         C  0.44191132  0.87312812  0.95575189     0.77800
O49         O  0.42882391  0.98695201  0.88334565    -0.58300
O50         O  0.30597436  0.94769608  0.95440480    -0.56800
O51         O  0.37906321  0.89762881  0.82174783    -0.56800
O52         O  0.43198620  0.91944433  0.95651490    -0.56000
O53         O  0.58401310  0.10445268  0.08617069    -0.57200
C54         C  0.49402841  0.11084039  0.19502913     0.75500
O55         O  0.60406477  0.13773053  0.23368886    -0.58300
C56         C  0.62679157  0.08221996  0.09062528     0.75400
C57         C  0.58538168  0.24950671  0.11877929     0.77800
Cd58       Cd  0.58841299  0.14855438  0.15586031     1.37500
O59         O  0.51690953  0.08728297  0.16558678    -0.57200
O60         O  0.54965439  0.21826994  0.11301234    -0.56000
C61         C  0.65199086  0.12935119  0.23058414     0.77800
O62         O  0.62216741  0.23514390  0.14234184    -0.58300
O63         O  0.51235492  0.15340761  0.20340885    -0.56800
O64         O  0.65044195  0.08993005  0.12514806    -0.56800
O65         O  0.67183016  0.13510265  0.19335996    -0.56000
O66         O  0.72803955  0.85930594  0.88513689    -0.57200
C67         C  0.72646303  0.97093161  0.95661842     0.75500
O68         O  0.88043291  0.96102973  0.89543826    -0.58300
C69         C  0.75322069  0.83603112  0.85679299     0.75400
C70         C  0.77116231  0.99130110  0.81121121     0.77800
Cd71       Cd  0.78967230  0.93019337  0.88807198     1.37500
O72         O  0.71690840  0.97990278  0.91746076    -0.57200
O73         O  0.79035332  0.01041829  0.84439864    -0.56000
C74         C  0.89410490  0.92657868  0.92147524     0.77800
O75         O  0.76525537  0.94442046  0.81268491    -0.58300
O76         O  0.76330423  0.94125137  0.96404514    -0.56800
O77         O  0.79754298  0.85333176  0.84698461    -0.56800
O78         O  0.86133342  0.89246402  0.92971002    -0.56000
O79         O  0.12316491  0.10310679  0.15203182    -0.57200
C80         C  0.17084521  0.21315966  0.23490767     0.75500
O81         O  0.10167913  0.26106045  0.10652812    -0.58300
C82         C  0.09115039  0.09761876  0.12207329     0.75400
C83         C  0.01191666  0.23116391  0.20749146     0.77800
Cd84       Cd  0.10271225  0.19356826  0.16388349     1.37500
O85         O  0.12893758  0.18929886  0.24070668    -0.57200
O86         O  0.03205016  0.18954609  0.21755831    -0.56000
C87         C  0.14994795  0.25833051  0.09916207     0.77800
O88         O  0.03076418  0.25360269  0.17445938    -0.58300
O89         O  0.18354415  0.22299183  0.19628422    -0.56800
O90         O  0.06366079  0.13504957  0.11257850    -0.56800
O91         O  0.17448024  0.22631719  0.12138946    -0.56000
O92         O  0.41249057  0.39392813  0.90297732    -0.57200
C93         C  0.30088434  0.34095198  0.82221201     0.75500
O94         O  0.24320258  0.40586350  0.94358959    -0.58300
C95         C  0.41718728  0.42542738  0.93236207     0.75400
C96         C  0.27608430  0.49697278  0.85193581     0.77800
Cd97       Cd  0.31833740  0.40871838  0.89233023     1.37500
O98         O  0.31886770  0.38444053  0.81554341    -0.57200
O99         O  0.32212308  0.48325256  0.84485453    -0.56000
C100        C  0.25893703  0.36688318  0.96332865     0.77800
O101        O  0.25119565  0.47260233  0.88092418    -0.58300
O102        O  0.29595299  0.32712509  0.86116969    -0.56800
O103        O  0.37784823  0.45118450  0.94108256    -0.56800
O104        O  0.30077526  0.34833641  0.94985135    -0.56000
C105        C  0.02784677  0.92864570  0.99232917     0.87100
C106        C  0.02968749  0.97407267  0.02153278    -0.53100
C107        C  0.07133492  0.97440434  0.04815897     0.10100
C108        C  0.10736548  0.92904196  0.04316872     0.21000
C109        C  0.07993714  0.92924088  0.96828775    -0.53800
C110        C  0.12160605  0.92950059  0.99484404     0.10200
C111        C  0.03011003  0.88301211  0.02303793    -0.53400
C112        C  0.07164342  0.88306011  0.04967617     0.10700
H113        H  0.00091870  0.00352970  0.02091940     0.15300
H114        H  0.14130084  0.92915029  0.06474101     0.01000
H115        H  0.08355287  0.92931304  0.93345484     0.15600
H116        H  0.00159200  0.85306656  0.02344031     0.15300
C117        C  0.58825742  0.48186495  0.06777308     0.87100
C118        C  0.54209749  0.48180164  0.03723637    -0.53100
C119        C  0.54119998  0.44173711  0.01093046     0.10100
C120        C  0.58643868  0.40520498  0.01772178     0.21000
C121        C  0.58535222  0.43153427  0.09233524    -0.53800
C122        C  0.58449796  0.39136053  0.06615918     0.10200
C123        C  0.63605763  0.47826243  0.03843514    -0.53400
C124        C  0.63509295  0.43813947  0.01220182     0.10700
H125        H  0.51285187  0.51082115  0.03643929     0.15300
H126        H  0.58572273  0.37248042  0.99641826     0.01000
H127        H  0.58465572  0.42795071  0.12720544     0.15600
H128        H  0.66784214  0.50493481  0.03847443     0.15300
O129        O  0.15544924  0.26295979  0.67331457    -0.57200
C130        C  0.03676825  0.27350314  0.60400214     0.75500
O131        O  0.05118051  0.11682235  0.66664709    -0.58300
C132        C  0.17766752  0.23787712  0.70282210     0.75400
C133        C  0.02063912  0.22868276  0.74638770     0.77800
Cd134      Cd  0.07966710  0.20644703  0.66924319     1.37500
O135        O  0.01150979  0.25849462  0.63686233    -0.57200
O136        O  0.99846797  0.21335955  0.71302323    -0.56000
C137        C  0.08045272  0.10581333  0.63553779     0.77800
O138        O  0.06941264  0.23012877  0.74481231    -0.58300
O139        O  0.08299648  0.25850782  0.60131501    -0.56800
O140        O  0.15733606  0.19607750  0.71320686    -0.56800
O141        O  0.10987513  0.14006758  0.62103251    -0.56000
O142        O  0.92297844  0.48613613  0.38890412    -0.57200
C143        C  0.93018416  0.37798146  0.46696786     0.75500
O144        O  0.77445119  0.38270957  0.40585638    -0.58300
C145        C  0.90079628  0.50427555  0.35595461     0.75400
C146        C  0.88872044  0.33964087  0.32796398     0.77800
Cd147      Cd  0.86656112  0.41057218  0.39523597     1.37500
O148        O  0.88317530  0.38953598  0.47148851    -0.57200
O149        O  0.88230830  0.32501196  0.36670023    -0.56000
C150        C  0.76165358  0.41930272  0.42869554     0.77800
O151        O  0.87929679  0.38520508  0.32007899    -0.58300
O152        O  0.94895548  0.38371899  0.42943839    -0.56800
O153        O  0.86093768  0.48127618  0.34381711    -0.56800
O154        O  0.79578254  0.45236649  0.43409768    -0.56000
O155        O  0.61884217  0.62506826  0.64448647    -0.57200
C156        C  0.64501341  0.71846505  0.73731435     0.75500
O157        O  0.58001520  0.74186908  0.59034678    -0.58300
C158        C  0.57929482  0.60799564  0.62633305     0.75400
C159        C  0.48352261  0.73808277  0.70292695     0.77800
Cd160      Cd  0.57843843  0.70530791  0.66446915     1.37500
O161        O  0.59711271  0.71014932  0.74173604    -0.57200
O162        O  0.50283200  0.69606677  0.71304734    -0.56000
C163        C  0.61205463  0.77630065  0.59796837     0.77800
O164        O  0.50493308  0.76189412  0.67179316    -0.58300
O165        O  0.66331886  0.71512845  0.69956547    -0.56800
O166        O  0.53889908  0.63417851  0.62779025    -0.56800
O167        O  0.62585571  0.77967814  0.63663167    -0.56000
O168        O  0.88686629  0.89022955  0.41493260    -0.57200
C169        C  0.79097610  0.85736583  0.32556740     0.75500
O170        O  0.72765182  0.86534324  0.42635644    -0.58300
C171        C  0.89854906  0.92466018  0.44018796     0.75400
C172        C  0.75753732  0.01136147  0.35784556     0.77800
Cd173      Cd  0.79781347  0.92134236  0.39898220     1.37500
O174        O  0.79885581  0.90392527  0.32138166    -0.57200
O175        O  0.80346571  0.99692372  0.35158988    -0.56000
C176        C  0.72511903  0.88276591  0.46372351     0.77800
O177        O  0.73188289  0.98721669  0.38643554    -0.58300
O178        O  0.79156155  0.83948624  0.36366680    -0.56800
O179        O  0.86533717  0.95857062  0.44497659    -0.56800
O180        O  0.75488761  0.91920360  0.47086322    -0.56000
O181        O  0.02790661  0.57932202  0.67222014    -0.57200
C182        C  0.13944076  0.58588112  0.59110986     0.75500
O183        O  0.11357969  0.73496553  0.65397474    -0.58300
C184        C  0.00348228  0.60374021  0.70030303     0.75400
C185        C  0.16520195  0.61836580  0.73033699     0.77800
Cd186      Cd  0.09636387  0.64322272  0.65986751     1.37500
O187        O  0.09421550  0.57642902  0.60531860    -0.57200
O188        O  0.18093817  0.62054454  0.69175195    -0.56000
C189        C  0.08376958  0.74321975  0.62265875     0.77800
O190        O  0.11940756  0.63266972  0.73680928    -0.58300
O191        O  0.16319854  0.62142757  0.60839214    -0.56800
O192        O  0.01915808  0.64790798  0.70628916    -0.56800
O193        O  0.05840558  0.70626304  0.60956382    -0.56000
O194        O  0.24596064  0.35134617  0.38839022    -0.57200
C195        C  0.24253196  0.47547866  0.45819286     0.75500
O196        O  0.39798883  0.43778961  0.39353834    -0.58300
C197        C  0.27226539  0.33172543  0.35859872     0.75400
C198        C  0.27575861  0.48641529  0.31863157     0.77800
Cd199      Cd  0.30256358  0.42567415  0.39353139     1.37500
O200        O  0.23563275  0.42926619  0.45209827    -0.57200
O201        O  0.30933363  0.50159228  0.34465793    -0.56000
C202        C  0.40462126  0.41802076  0.43043250     0.77800
O203        O  0.25738135  0.44336465  0.32638848    -0.58300
O204        O  0.27565726  0.49738251  0.43421246    -0.56800
O205        O  0.31539065  0.35220776  0.34937249    -0.56800
O206        O  0.36523402  0.39909016  0.44900886    -0.56000
O207        O  0.54777827  0.24131565  0.64453079    -0.57200
C208        C  0.50221669  0.13196684  0.72619187     0.75500
O209        O  0.56557763  0.09363608  0.58621007    -0.58300
C210        C  0.57581954  0.24981920  0.61163886     0.75400
C211        C  0.65632089  0.10376765  0.68603729     0.77800
Cd212      Cd  0.56511417  0.14969735  0.64951282     1.37500
O213        O  0.55037289  0.13956316  0.72764876    -0.57200
O214        O  0.64615950  0.14950714  0.69130090    -0.56000
C215        C  0.51682293  0.08922665  0.58509857     0.77800
O216        O  0.62764445  0.08096952  0.66012991    -0.58300
O217        O  0.48176768  0.13788802  0.68964738    -0.56800
O218        O  0.60022168  0.21308650  0.59705568    -0.56800
O219        O  0.49167077  0.11210636  0.61355073    -0.56000
O220        O  0.25347171  0.95365983  0.39983658    -0.57200
C221        C  0.36643588  0.00483492  0.31703913     0.75500
O222        O  0.42635482  0.94523122  0.43366850    -0.58300
C223        C  0.24645194  0.92208793  0.43032749     0.75400
C224        C  0.39003208  0.84616151  0.35142863     0.77800
Cd225      Cd  0.34717482  0.93546366  0.38870842     1.37500
O226        O  0.34559479  0.96274883  0.31140135    -0.57200
O227        O  0.34545741  0.86201634  0.34189169    -0.56000
C228        C  0.40723492  0.97976648  0.45597833     0.77800
O229        O  0.41250245  0.86827318  0.38163633    -0.58300
O230        O  0.37273147  0.01676659  0.35562555    -0.56800
O231        O  0.28418714  0.89400432  0.43938535    -0.56800
O232        O  0.36124237  0.99199295  0.44761579    -0.56000
C233        C  0.07747488  0.97477189  0.56914409     0.87100
C234        C  0.02931448  0.97338971  0.54098607    -0.53100
C235        C  0.02740303  0.93330573  0.51481178     0.10100
C236        C  0.07410389  0.89781361  0.51938828     0.21000
C237        C  0.07754868  0.92451547  0.59389824    -0.53800
C238        C  0.07586110  0.88411586  0.56796798     0.10200
C239        C  0.12332165  0.97218784  0.53753896    -0.53400
C240        C  0.12170513  0.93195088  0.51139015     0.10700
H241        H  0.99944196  0.00179958  0.54153290     0.15300
H242        H  0.07265039  0.86500625  0.49821937     0.01000
H243        H  0.07922273  0.92115562  0.62873732     0.15600
H244        H  0.15431447  0.99972262  0.53600175     0.15300
C245        C  0.58178482  0.48058869  0.55506343     0.87100
C246        C  0.53489797  0.47711366  0.52554591    -0.53100
C247        C  0.53528965  0.43597664  0.50044254     0.10100
C248        C  0.58280548  0.40215618  0.50706367     0.21000
C249        C  0.58204279  0.43108032  0.58088324    -0.53800
C250        C  0.58251640  0.38999093  0.55581970     0.10200
C251        C  0.62904583  0.47840081  0.52500228    -0.53400
C252        C  0.62971372  0.43735459  0.49979381     0.10700
H253        H  0.50377215  0.50425115  0.52507296     0.15300
H254        H  0.58318396  0.36860478  0.48671906     0.01000
H255        H  0.58140493  0.42870860  0.61581091     0.15600
H256        H  0.65952594  0.50648273  0.52408398     0.15300
C257        C  0.19895401  0.92034079  0.45538027    -0.12600
C258        C  0.16209531  0.92320982  0.47963094    -0.14200
C259        C  0.57928735  0.29876131  0.59135177    -0.12600
C260        C  0.58125161  0.33983237  0.57427915    -0.14200
C261        C  0.43577379  0.06138891  0.55021991    -0.12700
C262        C  0.48989658  0.05961343  0.55242328     0.09500
C263        C  0.51712045  0.02999919  0.52313101    -0.12700
C264        C  0.49047815  0.00284946  0.49218846    -0.12700
C265        C  0.43630936  0.00544362  0.48978668     0.09500
C266        C  0.40939714  0.03490953  0.51920488    -0.12700
H267        H  0.41362572  0.08382587  0.57224330     0.13400
H268        H  0.55887104  0.02793124  0.52408475     0.13400
H269        H  0.51221293  0.98066948  0.46969814     0.13400
H270        H  0.36768298  0.03765625  0.51821423     0.13400
C271        C  0.45397877  0.41937604  0.45149501    -0.12600
C272        C  0.49275617  0.42482247  0.47229350    -0.14200
C273        C  0.07948536  0.79217125  0.60237572    -0.12600
C274        C  0.07716303  0.83339583  0.58552065    -0.14200
C275        C  0.23485623  0.54882601  0.50517423    -0.12700
C276        C  0.21470875  0.50305166  0.49179211     0.09500
C277        C  0.16873302  0.48461993  0.51085717    -0.12700
C278        C  0.14333088  0.51183413  0.54272083    -0.12700
C279        C  0.16410478  0.55735199  0.55639704     0.09500
C280        C  0.21010010  0.57543785  0.53726803    -0.12700
H281        H  0.27034850  0.56385397  0.49121052     0.13400
H282        H  0.15235398  0.44946319  0.50097245     0.13400
H283        H  0.10797785  0.49700068  0.55705050     0.13400
H284        H  0.22708148  0.61036319  0.54708780     0.13400
C285        C  0.94661218  0.92473856  0.46343369    -0.12600
C286        C  0.98475491  0.92646928  0.48560758    -0.14200
C287        C  0.58048385  0.56182115  0.60369045    -0.12600
C288        C  0.58116257  0.52477078  0.58229918    -0.14200
C289        C  0.62613163  0.79841929  0.51998706    -0.09500
C290        C  0.63463751  0.80885123  0.56339159     0.09500
C291        C  0.66938118  0.84726620  0.57339859    -0.12700
C292        C  0.69701648  0.87294441  0.54079440    -0.12700
C293        C  0.69079938  0.86046282  0.49755083     0.09500
C294        C  0.65415263  0.82377769  0.48739311    -0.12700
H295        H  0.59957811  0.76904787  0.51128301     0.13400
H296        H  0.67668310  0.85621905  0.60655015     0.13400
H297        H  0.72490487  0.90108565  0.54960936     0.13400
H298        H  0.64829136  0.81357936  0.45432756     0.13400
C299        C  0.67248629  0.42780070  0.47061990    -0.12600
C300        C  0.71149453  0.42272442  0.44929230    -0.14200
C301        C  0.07903603  0.01881838  0.59673225    -0.12600
C302        C  0.07964387  0.05726556  0.61641352    -0.14200
C303        C  0.03674589  0.31349452  0.52998501    -0.12700
C304        C  0.01258566  0.30543091  0.57027680     0.09500
C305        C  0.96318676  0.32545015  0.57726855    -0.12700
C306        C  0.93747420  0.35096390  0.54418193    -0.12700
C307        C  0.96047159  0.35691664  0.50324153     0.09500
C308        C  0.01086341  0.33892301  0.49672789    -0.12700
H309        H  0.07482250  0.29855562  0.52368594     0.13400
H310        H  0.94372406  0.32022083  0.60806951     0.13400
H311        H  0.89882364  0.36461083  0.55030360     0.13400
H312        H  0.02959585  0.34297711  0.46551999     0.13400
C313        C  0.27171475  0.33160632  0.74635950    -0.12700
C314        C  0.28220735  0.30973123  0.78687469     0.09500
C315        C  0.26651250  0.26013252  0.79542744    -0.12700
C316        C  0.23671323  0.23464186  0.76574248    -0.12700
C317        C  0.22140365  0.25849466  0.72720942     0.09500
C318        C  0.24133922  0.30629798  0.71683231    -0.12700
H319        H  0.28336945  0.36979975  0.73882532     0.13400
H320        H  0.27432187  0.24220196  0.82623371     0.13400
H321        H  0.22218606  0.19772750  0.77461432     0.13400
H322        H  0.23039701  0.32555739  0.68732618     0.13400
C323        C  0.24882009  0.58381423  0.75745674    -0.12700
C324        C  0.19701897  0.59656078  0.76526517     0.09500
C325        C  0.17385934  0.58186232  0.80469949    -0.12700
C326        C  0.20072634  0.55195395  0.83437166    -0.12700
C327        C  0.25148553  0.53665576  0.82536038     0.09500
C328        C  0.27587706  0.55441351  0.78734185    -0.12700
H329        H  0.26763488  0.59451179  0.72734535     0.13400
H330        H  0.13387127  0.59086766  0.81151888     0.13400
H331        H  0.18090474  0.53878104  0.86334295     0.13400
H332        H  0.31491374  0.54309489  0.77941063     0.13400
C333        C  0.46420355  0.43054634  0.95628281    -0.12600
C334        C  0.50064039  0.43484707  0.97993664    -0.14200
C335        C  0.25226255  0.24907645  0.26385566    -0.12700
C336        C  0.20130720  0.23238237  0.27096220     0.09500
C337        C  0.17716197  0.24169094  0.31064106    -0.12700
C338        C  0.20190792  0.27086371  0.34112269    -0.12700
C339        C  0.25152574  0.29063903  0.33263345     0.09500
C340        C  0.27728181  0.27748593  0.29455331    -0.12700
H341        H  0.27176689  0.24246434  0.23356942     0.13400
H342        H  0.13767840  0.22966368  0.31679526     0.13400
H343        H  0.18094324  0.28054661  0.37002871     0.13400
H344        H  0.31545687  0.29220893  0.28696638     0.13400
C345        C  0.94925086  0.29992532  0.22293554    -0.12700
C346        C  0.97135625  0.25385146  0.23483862     0.09500
C347        C  0.95943560  0.23291152  0.27572797    -0.12700
C348        C  0.92926184  0.25919322  0.30519410    -0.12700
C349        C  0.91021214  0.30691380  0.29431236     0.09500
C350        C  0.91893036  0.32609566  0.25231448    -0.12700
H351        H  0.95756494  0.31697943  0.19168636     0.13400
H352        H  0.97596629  0.19748898  0.28594326     0.13400
H353        H  0.92343517  0.24344415  0.33728173     0.13400
H354        H  0.90476103  0.36274010  0.24287012     0.13400
C355        C  0.08080186  0.01514485  0.07709092    -0.12600
C356        C  0.08645983  0.05150885  0.09908175    -0.14200
C357        C  0.15114476  0.32511095  0.04028242    -0.12700
C358        C  0.17720918  0.28975925  0.06620316     0.09500
C359        C  0.23049166  0.28304019  0.05971107    -0.12700
C360        C  0.25677563  0.30923479  0.02698101    -0.12700
C361        C  0.23067585  0.34322886  0.00004063     0.09500
C362        C  0.17781259  0.35191573  0.00750288    -0.12700
H363        H  0.11013800  0.33129067  0.04479249     0.13400
H364        H  0.25189939  0.25655525  0.07937335     0.13400
H365        H  0.29764289  0.30225414  0.02236468     0.13400
H366        H  0.15686512  0.37809409  0.98719600     0.13400
C367        C  0.74975759  0.07403989  0.77586190    -0.12700
C368        C  0.75265017  0.02170797  0.77391552     0.09500
C369        C  0.73069106  0.99800243  0.73856690    -0.12700
C370        C  0.70280719  0.02542839  0.70783648    -0.12700
C371        C  0.69617916  0.07721741  0.71176485     0.09500
C372        C  0.72176731  0.10152560  0.74508003    -0.12700
H373        H  0.76626225  0.09338434  0.80264262     0.13400
H374        H  0.73239583  0.95773643  0.73597809     0.13400
H375        H  0.68372817  0.00556557  0.68254456     0.13400
H376        H  0.71741774  0.14140551  0.74900635     0.13400
C377        C  0.65240879  0.75013865  0.81195888    -0.12700
C378        C  0.67657880  0.73598354  0.77344088     0.09500
C379        C  0.72926422  0.74699239  0.76711922    -0.12700
C380        C  0.75585097  0.77570744  0.79673460    -0.12700
C381        C  0.73017486  0.79426751  0.83303800     0.09500
C382        C  0.67889969  0.77917433  0.84143373    -0.12700
H383        H  0.61181813  0.74214999  0.81779954     0.13400
H384        H  0.74897416  0.73645011  0.73786330     0.13400
H385        H  0.79541890  0.78656764  0.78941043     0.13400
H386        H  0.65809787  0.79277045  0.86913915     0.13400
C387        C  0.94357505  0.92715412  0.94255589    -0.12600
C388        C  0.98254851  0.92802386  0.96377817    -0.14200
C389        C  0.73502327  0.09994546  0.26330155    -0.12700
C390        C  0.68193158  0.10965155  0.26765599     0.09500
C391        C  0.65611369  0.09329648  0.30550550    -0.12700
C392        C  0.68174268  0.06425847  0.33660692    -0.12700
C393        C  0.73386262  0.05128218  0.33065209     0.09500
C394        C  0.76075693  0.07121571  0.29457153    -0.12700
H395        H  0.75599157  0.11208477  0.23457667     0.13400
H396        H  0.61516501  0.10009523  0.30982489     0.13400
H397        H  0.65993758  0.04954564  0.36403314     0.13400
H398        H  0.80095533  0.06194917  0.28905254     0.13400
C399        C  0.43374295  0.11170610  0.25827497    -0.12700
C400        C  0.45104331  0.08836325  0.22081487     0.09500
C401        C  0.43232789  0.04033682  0.21198531    -0.12700
C402        C  0.40028239  0.01469164  0.24173822    -0.12700
C403        C  0.38704554  0.03636383  0.28103041     0.09500
C404        C  0.40234193  0.08584900  0.28822885    -0.12700
H405        H  0.44737530  0.14874312  0.26595812     0.13400
H406        H  0.44494225  0.02142920  0.18337952     0.13400
H407        H  0.38929983  0.97645471  0.23545992     0.13400
H408        H  0.39262986  0.10348210  0.31818719     0.13400
C409        C  0.58382124  0.34055024  0.08322065    -0.12600
C410        C  0.58427534  0.29891186  0.09924620    -0.14200
C411        C  0.65178338  0.02150143  0.98346332    -0.12700
C412        C  0.69773812  0.99530053  0.99170112     0.09500
C413        C  0.71814436  0.99541395  0.03333397    -0.12700
C414        C  0.69424546  0.02268293  0.06564610    -0.12700
C415        C  0.64907308  0.05001332  0.05719827     0.09500
C416        C  0.62745171  0.04834519  0.01601673    -0.12700
H417        H  0.63517274  0.02198018  0.95165575     0.13400
H418        H  0.75362756  0.97578681  0.04058992     0.13400
H419        H  0.71178013  0.02315276  0.09708916     0.13400
H420        H  0.59266169  0.06901952  0.00860079     0.13400
C421        C  0.40040080  0.83781819  0.74983201    -0.12700
C422        C  0.38973442  0.81725079  0.79095352     0.09500
C423        C  0.40021073  0.76641134  0.79914325    -0.12700
C424        C  0.42630638  0.73838159  0.76834908    -0.12700
C425        C  0.44215077  0.76084093  0.72899164     0.09500
C426        C  0.42621181  0.80983185  0.71908594    -0.12700
H427        H  0.39222822  0.87673592  0.74242490     0.13400
H428        H  0.39211751  0.74948012  0.83048550     0.13400
H429        H  0.43783393  0.70055227  0.77680186     0.13400
H430        H  0.43745924  0.82801301  0.68891299     0.13400
C431        C  0.39559075  0.07056987  0.79278569    -0.12700
C432        C  0.42372038  0.05080846  0.82766159     0.09500
C433        C  0.47522733  0.06622659  0.83266591    -0.12700
C434        C  0.49947698  0.09681942  0.80133020    -0.12700
C435        C  0.47284903  0.11240347  0.76423565     0.09500
C436        C  0.41994884  0.10103765  0.76128885    -0.12700
H437        H  0.35567404  0.05973222  0.78823060     0.13400
H438        H  0.49785006  0.05196392  0.85929202     0.13400
H439        H  0.54023790  0.10510712  0.80466645     0.13400
H440        H  0.39832207  0.11277349  0.73324998     0.13400
C441        C  0.21679549  0.92864828  0.96189862    -0.12600
C442        C  0.17413900  0.92958326  0.97821399    -0.14200
C443        C  0.49574718  0.76427053  0.30682442    -0.12700
C444        C  0.47488066  0.75108497  0.26711972     0.09500
C445        C  0.42297483  0.76252522  0.25876091    -0.12700
C446        C  0.39376662  0.78987058  0.28813930    -0.12700
C447        C  0.41613336  0.80700383  0.32611837     0.09500
C448        C  0.46682191  0.79225168  0.33589481    -0.12700
H449        H  0.53571545  0.75610512  0.31412408     0.13400
H450        H  0.40580230  0.75259658  0.22854654     0.13400
H451        H  0.35474843  0.80044887  0.27969666     0.13400
H452        H  0.48519504  0.80480538  0.36482427     0.13400
C453        C  0.73547070  0.82341358  0.21856412    -0.12700
C454        C  0.72124933  0.77325521  0.22665225     0.09500
C455        C  0.74015946  0.74864947  0.26366661    -0.12700
C456        C  0.76753260  0.77507897  0.29436588    -0.12700
C457        C  0.77670378  0.82658978  0.28850400     0.09500
C458        C  0.76306972  0.84981320  0.24920733    -0.12700
H459        H  0.72175435  0.84335499  0.19025196     0.13400
H460        H  0.73031391  0.70986168  0.27061245     0.13400
H461        H  0.77804229  0.75604233  0.32408030     0.13400
H462        H  0.76985388  0.88945039  0.24361403     0.13400
C463        C  0.59007647  0.56336733  0.11611304    -0.12600
C464        C  0.58944238  0.52547734  0.09574863    -0.14200
C465        C  0.51448416  0.77155829  0.01616253    -0.12700
C466        C  0.53444897  0.79769424  0.05094878     0.09500
C467        C  0.52888689  0.84992257  0.05145856    -0.12700
C468        C  0.50097548  0.87506738  0.01928243    -0.12700
C469        C  0.47793001  0.84837108  0.98616084     0.09500
C470        C  0.48645622  0.79660753  0.98416818    -0.12700
H471        H  0.51830638  0.73133494  0.01473606     0.13400
H472        H  0.54423210  0.87108942  0.07769170     0.13400
H473        H  0.49554835  0.91504070  0.02138174     0.13400
H474        H  0.46966700  0.77503521  0.95879205     0.13400
C475        C  0.99611086  0.60028892  0.31116593    -0.12700
C476        C  0.97360840  0.61266015  0.27138864     0.09500
C477        C  0.92316736  0.59587705  0.26341192    -0.12700
C478        C  0.89772629  0.56368437  0.29278795    -0.12700
C479        C  0.92216892  0.54747737  0.33072610     0.09500
C480        C  0.97063954  0.56790162  0.34058811    -0.12700
H481        H  0.03496609  0.61262107  0.31823240     0.13400
H482        H  0.90468715  0.60488711  0.23317123     0.13400
H483        H  0.86022260  0.54890632  0.28437131     0.13400
H484        H  0.99035828  0.55626441  0.36963202     0.13400
C485        C  0.19938532  0.52459012  0.22087310    -0.12700
C486        C  0.20030018  0.57696297  0.22309556     0.09500
C487        C  0.23271918  0.59939505  0.25311268    -0.12700
C488        C  0.26085328  0.56985448  0.28236114    -0.12700
C489        C  0.25622754  0.51750923  0.28242340     0.09500
C490        C  0.22670191  0.49520947  0.25043832    -0.12700
H491        H  0.17476003  0.50615789  0.19817566     0.13400
H492        H  0.23422188  0.63970011  0.25547273     0.13400
H493        H  0.28335056  0.58796449  0.30668162     0.13400
H494        H  0.22266231  0.45491902  0.24955549     0.13400
C495        C  0.08349420  0.80432404  0.10216470    -0.12600
C496        C  0.08070583  0.84198443  0.07990888    -0.14200
C497        C  0.91288078  0.58028644  0.79474722    -0.12700
C498        C  0.90151082  0.52927370  0.79060831     0.09500
C499        C  0.91672371  0.50544367  0.75275427    -0.12700
C500        C  0.94688610  0.53079152  0.72154059    -0.12700
C501        C  0.96185471  0.58068525  0.72735312     0.09500
C502        C  0.94251746  0.60581635  0.76327077    -0.12700
H503        H  0.90157895  0.59963661  0.82349236     0.13400
H504        H  0.90866911  0.46607404  0.74868914     0.13400
H505        H  0.96108550  0.51043609  0.69422250     0.13400
H506        H  0.95326327  0.64433130  0.76861843     0.13400
C507        C  0.99124906  0.29810846  0.84803256    -0.12700
C508        C  0.93715900  0.30184783  0.84657622     0.09500
C509        C  0.91034805  0.27436068  0.81589936    -0.12700
C510        C  0.93734388  0.24732758  0.78491714    -0.12700
C511        C  0.99164037  0.24733096  0.78408413     0.09500
C512        C  0.01819142  0.27119835  0.81708038    -0.12700
H513        H  0.01306496  0.31896598  0.87112647     0.13400
H514        H  0.86863164  0.27640224  0.81405415     0.13400
H515        H  0.91582754  0.22897470  0.76013129     0.13400
H516        H  0.06004583  0.27179887  0.81743710     0.13400
C517        C  0.71530177  0.42383645  0.96037909    -0.12600
C518        C  0.67707502  0.42809971  0.98263513    -0.14200
C519        C  0.92728491  0.51904454  0.04078288    -0.12700
C520        C  0.95472728  0.50144784  0.00507912     0.09500
C521        C  0.00790621  0.51194757  0.00123319    -0.12700
C522        C  0.03270474  0.54084315  0.03193018    -0.12700
C523        C  0.00457813  0.55999615  0.06670473     0.09500
C524        C  0.95186040  0.54805408  0.07113546    -0.12700
H525        H  0.88633242  0.51152072  0.04473656     0.13400
H526        H  0.03004015  0.49876280  0.97406392     0.13400
H527        H  0.07348384  0.54916988  0.02791772     0.13400
H528        H  0.92925859  0.56176281  0.09784263     0.13400
loop_ 
_geom_bond_atom_site_label_1 
_geom_bond_atom_site_label_2 
_geom_bond_distance 
_geom_bond_site_symmetry_2 
_ccdc_geom_bond_type 
O1            C4   1.263       .  A
O1           Cd6   2.466       .  S
C2           O11   1.265       .  A
C2            O7   1.266       .  A
C2          C517   1.440       .  S
O3            C9   1.266       .  A
O3           Cd6   2.470       .  S
C4           O12   1.265       .  A
C4          C498   1.480       .  S
C5           O10   1.264       .  A
C5            O8   1.265       .  A
C5          C520   1.480   1_556  S
Cd6          O13   2.470       .  S
Cd6          O12   2.487       .  S
Cd6          O11   2.473       .  S
Cd6           O7   2.474       .  S
Cd6          O10   2.453       .  S
Cd6           O8   2.494       .  S
C9           O13   1.266       .  A
C9          C508   1.482       .  S
O14          C17   1.263       .  A
O14         Cd19   2.503       .  S
C15          O24   1.265   1_455  A
C15          O20   1.267       .  A
C15         C476   1.482   1_455  S
O16          C22   1.264       .  A
O16         Cd19   2.435       .  S
C17          O25   1.262       .  A
C17         C495   1.445       .  S
C18          O23   1.265       .  A
C18          O21   1.268       .  A
C18         C486   1.480       .  S
Cd19         O26   2.497       .  S
Cd19         O25   2.492       .  S
Cd19         O24   2.459   1_455  S
Cd19         O20   2.492       .  S
Cd19         O23   2.448       .  S
Cd19         O21   2.484       .  S
C22          O26   1.268       .  A
C22         C523   1.479       .  S
O27          C30   1.267       .  A
O27         Cd32   2.488       .  S
C28          O37   1.266       .  A
C28          O33   1.264       .  A
C28         C466   1.481       .  S
O29          C35   1.265       .  A
O29         Cd32   2.477       .  S
C30          O38   1.265       .  A
C30         C454   1.483       .  S
C31          O36   1.263       .  A
C31          O34   1.264       .  A
C31         C444   1.483       .  S
Cd32         O39   2.474       .  S
Cd32         O38   2.465       .  S
Cd32         O37   2.483       .  S
Cd32         O33   2.468       .  S
Cd32         O36   2.483       .  S
Cd32         O34   2.495       .  S
C35          O39   1.265       .  A
C35         C463   1.440       .  S
O40          C43   1.266       .  A
O40         Cd45   2.487       .  S
C41          O50   1.262       .  A
C41          O46   1.262       .  A
C41         C441   1.443       .  S
O42          C48   1.263       .  A
O42         Cd45   2.454       .  S
C43          O51   1.265       .  A
C43         C422   1.479       .  S
C44          O49   1.267   1_545  A
C44          O47   1.266   1_545  A
C44         C432   1.484       .  S
Cd45         O52   2.503       .  S
Cd45         O51   2.452       .  S
Cd45         O50   2.503       .  S
Cd45         O46   2.488       .  S
Cd45         O49   2.480       .  S
Cd45         O47   2.479       .  S
C48          O52   1.267       .  A
C48         C469   1.482       .  S
O53          C56   1.266       .  A
O53         Cd58   2.497       .  S
C54          O63   1.266       .  A
C54          O59   1.268       .  A
C54         C400   1.481       .  S
O55          C61   1.264       .  A
O55         Cd58   2.469       .  S
C56          O64   1.263       .  A
C56         C415   1.480       .  S
C57          O62   1.263       .  A
C57          O60   1.261       .  A
C57         C410   1.442       .  S
Cd58         O65   2.489       .  S
Cd58         O64   2.452       .  S
Cd58         O63   2.455       .  S
Cd58         O59   2.478       .  S
Cd58         O62   2.497       .  S
Cd58         O60   2.487       .  S
C61          O65   1.267       .  A
C61         C390   1.484       .  S
O66          C69   1.268       .  A
O66         Cd71   2.477       .  S
C67          O76   1.263       .  A
C67          O72   1.263       .  A
C67         C412   1.480       .  S
O68          C74   1.266       .  A
O68         Cd71   2.501       .  S
C69          O77   1.266       .  A
C69         C381   1.482       .  S
C70          O75   1.263       .  A
C70          O73   1.269   1_565  A
C70         C368   1.485   1_565  S
Cd71         O78   2.478       .  S
Cd71         O77   2.456       .  S
Cd71         O76   2.478       .  S
Cd71         O72   2.489       .  S
Cd71         O75   2.457       .  S
Cd71         O73   2.512   1_565  S
C74          O78   1.263       .  A
C74         C387   1.445       .  S
O79          C82   1.265       .  A
O79         Cd84   2.515       .  S
C80          O89   1.263       .  A
C80          O85   1.265       .  A
C80         C336   1.479       .  S
O81          C87   1.270       .  A
O81         Cd84   2.507       .  S
C82          O90   1.262       .  A
C82         C356   1.447       .  S
C83          O88   1.269       .  A
C83          O86   1.265       .  A
C83         C346   1.485   1_455  S
Cd84         O91   2.416       .  S
Cd84         O90   2.483       .  S
Cd84         O89   2.467       .  S
Cd84         O85   2.492       .  S
Cd84         O88   2.489       .  S
Cd84         O86   2.463       .  S
C87          O91   1.265       .  A
C87         C358   1.481       .  S
O92          C95   1.265       .  A
O92         Cd97   2.495       .  S
C93         O102   1.263       .  A
C93          O98   1.263       .  A
C93         C314   1.481       .  S
O94         C100   1.268       .  A
O94         Cd97   2.501       .  S
C95         O103   1.263       .  A
C95         C333   1.441       .  S
C96         O101   1.268       .  A
C96          O99   1.267       .  A
C96         C327   1.480       .  S
Cd97        O104   2.419       .  S
Cd97        O103   2.467       .  S
Cd97        O102   2.480       .  S
Cd97         O98   2.491       .  S
Cd97        O101   2.465       .  S
Cd97         O99   2.453       .  S
C100        O104   1.265       .  A
C100        C361   1.477   1_556  S
C105        C106   1.536   1_556  S
C105        C111   1.533   1_556  S
C105        C109   1.534       .  S
C105        C388   1.479   1_455  S
C106        H113   1.087   1_565  S
C106        C107   1.367       .  D
C107        C108   1.544       .  S
C107        C355   1.452   1_565  S
C108        C112   1.544       .  S
C108        C110   1.544   1_554  S
C108        H114   1.111       .  S
C109        H115   1.087       .  S
C109        C110   1.366       .  D
C110        C442   1.449       .  S
C111        H116   1.087       .  S
C111        C112   1.365       .  D
C112        C496   1.450       .  S
C117        C118   1.535       .  S
C117        C123   1.534       .  S
C117        C121   1.533       .  S
C117        C464   1.473       .  S
C118        H125   1.087       .  S
C118        C119   1.365       .  D
C119        C120   1.541       .  S
C119        C334   1.447   1_554  S
C120        C124   1.539       .  S
C120        C122   1.543       .  S
C120        H126   1.111   1_554  S
C121        H127   1.087       .  S
C121        C122   1.365       .  D
C122        C409   1.447       .  S
C123        H128   1.087       .  S
C123        C124   1.365       .  D
C124        C518   1.446   1_554  S
O129        C132   1.268       .  A
O129       Cd134   2.478       .  S
C130        O139   1.266       .  A
C130        O135   1.263       .  A
C130        C304   1.482       .  S
O131        C137   1.264       .  A
O131       Cd134   2.509       .  S
C132        O140   1.267       .  A
C132        C317   1.482       .  S
C133        O138   1.263       .  A
C133        O136   1.268   1_455  A
C133        C511   1.483   1_455  S
Cd134       O141   2.476       .  S
Cd134       O140   2.457       .  S
Cd134       O139   2.502       .  S
Cd134       O135   2.461       .  S
Cd134       O138   2.462       .  S
Cd134       O136   2.502   1_455  S
C137        O141   1.261       .  A
C137        C302   1.442       .  S
O142        C145   1.268       .  A
O142       Cd147   2.491       .  S
C143        O152   1.265       .  A
C143        O148   1.264       .  A
C143        C307   1.482       .  S
O144        C150   1.267       .  A
O144       Cd147   2.511       .  S
C145        O153   1.265       .  A
C145        C479   1.483       .  S
C146        O151   1.263       .  A
C146        O149   1.267       .  A
C146        C349   1.486       .  S
Cd147       O154   2.470       .  S
Cd147       O153   2.453       .  S
Cd147       O152   2.494       .  S
Cd147       O148   2.467       .  S
Cd147       O151   2.470       .  S
Cd147       O149   2.509       .  S
C150        O154   1.263       .  A
C150        C300   1.446       .  S
O155        C158   1.264       .  A
O155       Cd160   2.482       .  S
C156        O165   1.267       .  A
C156        O161   1.264       .  A
C156        C378   1.481       .  S
O157        C163   1.265       .  A
O157       Cd160   2.482       .  S
C158        O166   1.262       .  A
C158        C287   1.438       .  S
C159        O164   1.267       .  A
C159        O162   1.266       .  A
C159        C425   1.478       .  S
Cd160       O167   2.467       .  S
Cd160       O166   2.467       .  S
Cd160       O165   2.480       .  S
Cd160       O161   2.463       .  S
Cd160       O164   2.449       .  S
Cd160       O162   2.467       .  S
C163        O167   1.264       .  A
C163        C290   1.481       .  S
O168        C171   1.263       .  A
O168       Cd173   2.505       .  S
C169        O178   1.267       .  A
C169        O174   1.265       .  A
C169        C457   1.483       .  S
O170        C176   1.264       .  A
O170       Cd173   2.479       .  S
C171        O179   1.263       .  A
C171        C285   1.446       .  S
C172        O177   1.266   1_545  A
C172        O175   1.266   1_545  A
C172        C393   1.485       .  S
Cd173       O180   2.485       .  S
Cd173       O179   2.491       .  S
Cd173       O178   2.480       .  S
Cd173       O174   2.470       .  S
Cd173       O177   2.485       .  S
Cd173       O175   2.476       .  S
C176        O180   1.266       .  A
C176        C293   1.482       .  S
O181        C184   1.269       .  A
O181       Cd186   2.477       .  S
C182        O191   1.265       .  A
C182        O187   1.269       .  A
C182        C279   1.479       .  S
O183        C189   1.265       .  A
O183       Cd186   2.495       .  S
C184        O192   1.267       .  A
C184        C501   1.482   1_455  S
C185        O190   1.263       .  A
C185        O188   1.263       .  A
C185        C324   1.480       .  S
Cd186       O193   2.485       .  S
Cd186       O192   2.458       .  S
Cd186       O191   2.427       .  S
Cd186       O187   2.496       .  S
Cd186       O190   2.483       .  S
Cd186       O188   2.485       .  S
C189        O193   1.263       .  A
C189        C273   1.445       .  S
O194        C197   1.269       .  A
O194       Cd199   2.474       .  S
C195        O204   1.263       .  A
C195        O200   1.268       .  A
C195        C276   1.477       .  S
O196        C202   1.266       .  A
O196       Cd199   2.490       .  S
C197        O205   1.268       .  A
C197        C339   1.482       .  S
C198        O203   1.261       .  A
C198        O201   1.267       .  A
C198        C489   1.479       .  S
Cd199       O206   2.475       .  S
Cd199       O205   2.448       .  S
Cd199       O204   2.425       .  S
Cd199       O200   2.504       .  S
Cd199       O203   2.442       .  S
Cd199       O201   2.511       .  S
C202        O206   1.264       .  A
C202        C271   1.443       .  S
O207        C210   1.263       .  A
O207       Cd212   2.495       .  S
C208        O217   1.266       .  A
C208        O213   1.263       .  A
C208        C435   1.483       .  S
O209        C215   1.268       .  A
O209       Cd212   2.505       .  S
C210        O218   1.262       .  A
C210        C259   1.442       .  S
C211        O216   1.267       .  A
C211        O214   1.267       .  A
C211        C371   1.485       .  S
Cd212       O219   2.442       .  S
Cd212       O218   2.486       .  S
Cd212       O217   2.495       .  S
Cd212       O213   2.464       .  S
Cd212       O216   2.473       .  S
Cd212       O214   2.480       .  S
C215        O219   1.265       .  A
C215        C262   1.482       .  S
O220        C223   1.266       .  A
O220       Cd225   2.498       .  S
C221        O230   1.262       .  A
C221        O226   1.264   1_545  A
C221        C403   1.479       .  S
O222        C228   1.268       .  A
O222       Cd225   2.510       .  S
C223        O231   1.265       .  A
C223        C257   1.448       .  S
C224        O229   1.268       .  A
C224        O227   1.267       .  A
C224        C447   1.486       .  S
Cd225       O232   2.434       .  S
Cd225       O231   2.493       .  S
Cd225       O230   2.468   1_565  S
Cd225       O226   2.497       .  S
Cd225       O229   2.485       .  S
Cd225       O227   2.475       .  S
C228        O232   1.264       .  A
C228        C265   1.481   1_565  S
C233        C234   1.532       .  S
C233        C239   1.535       .  S
C233        C237   1.533       .  S
C233        C301   1.476   1_565  S
C234        H241   1.087   1_465  S
C234        C235   1.364       .  D
C235        C236   1.546       .  S
C235        C286   1.451   1_455  S
C236        C240   1.545       .  S
C236        C238   1.547       .  S
C236        H242   1.111       .  S
C237        H243   1.087       .  S
C237        C238   1.366       .  D
C238        C274   1.451       .  S
C239        H244   1.087       .  S
C239        C240   1.366       .  D
C240        C258   1.454       .  S
C245        C246   1.534       .  S
C245        C251   1.534       .  S
C245        C249   1.532       .  S
C245        C288   1.471       .  S
C246        H253   1.087       .  S
C246        C247   1.365       .  D
C247        C248   1.543       .  S
C247        C272   1.449       .  S
C248        C252   1.545       .  S
C248        C250   1.543       .  S
C248        H254   1.111       .  S
C249        H255   1.087       .  S
C249        C250   1.364       .  D
C250        C260   1.447       .  S
C251        H256   1.087       .  S
C251        C252   1.365       .  D
C252        C299   1.451       .  S
C257        C258   1.213       .  T
C259        C260   1.209       .  T
C261        C262   1.404       .  A
C261        C266   1.394       .  A
C261        H267   1.083       .  S
C262        C263   1.407       .  A
C263        C264   1.405       .  A
C263        H268   1.083       .  S
C264        C265   1.407       .  A
C264        H269   1.083   1_545  S
C265        C266   1.404       .  A
C266        H270   1.083       .  S
C271        C272   1.210       .  T
C273        C274   1.212       .  T
C275        C276   1.404       .  A
C275        C280   1.393       .  A
C275        H281   1.083       .  S
C276        C277   1.406       .  A
C277        C278   1.404       .  A
C277        H282   1.083       .  S
C278        C279   1.407       .  A
C278        H283   1.083       .  S
C279        C280   1.404       .  A
C280        H284   1.083       .  S
C285        C286   1.212       .  T
C287        C288   1.208       .  T
C289        C290   1.405       .  A
C289        C294   1.400       .  A
C289        H295   1.083       .  S
C290        C291   1.406       .  A
C291        C292   1.399       .  A
C291        H296   1.083       .  S
C292        C293   1.405       .  A
C292        H297   1.083       .  S
C293        C294   1.406       .  A
C294        H298   1.083       .  S
C299        C300   1.212       .  T
C301        C302   1.210       .  T
C303        C304   1.406       .  A
C303        C308   1.402       .  A
C303        H309   1.083       .  S
C304        C305   1.405   1_455  A
C305        C306   1.397       .  A
C305        H310   1.083       .  S
C306        C307   1.405       .  A
C306        H311   1.083       .  S
C307        C308   1.406   1_655  A
C308        H312   1.083       .  S
C313        C314   1.406       .  A
C313        C318   1.401       .  A
C313        H319   1.084       .  S
C314        C315   1.404       .  A
C315        C316   1.398       .  A
C315        H320   1.083       .  S
C316        C317   1.406       .  A
C316        H321   1.084       .  S
C317        C318   1.406       .  A
C318        H322   1.083       .  S
C323        C324   1.405       .  A
C323        C328   1.399       .  A
C323        H329   1.083       .  S
C324        C325   1.406       .  A
C325        C326   1.399       .  A
C325        H330   1.083       .  S
C326        C327   1.405       .  A
C326        H331   1.083       .  S
C327        C328   1.406       .  A
C328        H332   1.084       .  S
C333        C334   1.209       .  T
C335        C336   1.404       .  A
C335        C340   1.398       .  A
C335        H341   1.083       .  S
C336        C337   1.406       .  A
C337        C338   1.402       .  A
C337        H342   1.084       .  S
C338        C339   1.407       .  A
C338        H343   1.083       .  S
C339        C340   1.406       .  A
C340        H344   1.083       .  S
C345        C346   1.404       .  A
C345        C350   1.401       .  A
C345        H351   1.083       .  S
C346        C347   1.408       .  A
C347        C348   1.402       .  A
C347        H352   1.083       .  S
C348        C349   1.406       .  A
C348        H353   1.083       .  S
C349        C350   1.407       .  A
C350        H354   1.083       .  S
C355        C356   1.212       .  T
C357        C358   1.407       .  A
C357        C362   1.405       .  A
C357        H363   1.083       .  S
C358        C359   1.404       .  A
C359        C360   1.391       .  A
C359        H364   1.083       .  S
C360        C361   1.402       .  A
C360        H365   1.083       .  S
C361        C362   1.406       .  A
C362        H366   1.083   1_554  S
C367        C368   1.405       .  A
C367        C372   1.403       .  A
C367        H373   1.083       .  S
C368        C369   1.407   1_545  A
C369        C370   1.399   1_565  A
C369        H374   1.083       .  S
C370        C371   1.405       .  A
C370        H375   1.083       .  S
C371        C372   1.407       .  A
C372        H376   1.083       .  S
C377        C378   1.407       .  A
C377        C382   1.400       .  A
C377        H383   1.084       .  S
C378        C379   1.404       .  A
C379        C380   1.399       .  A
C379        H384   1.082       .  S
C380        C381   1.406       .  A
C380        H385   1.084       .  S
C381        C382   1.405       .  A
C382        H386   1.083       .  S
C387        C388   1.212       .  T
C389        C390   1.405       .  A
C389        C394   1.401       .  A
C389        H395   1.083       .  S
C390        C391   1.407       .  A
C391        C392   1.400       .  A
C391        H396   1.084       .  S
C392        C393   1.406       .  A
C392        H397   1.083       .  S
C393        C394   1.407       .  A
C394        H398   1.083       .  S
C399        C400   1.406       .  A
C399        C404   1.398       .  A
C399        H405   1.084       .  S
C400        C401   1.406       .  A
C401        C402   1.401       .  A
C401        H406   1.082       .  S
C402        C403   1.405       .  A
C402        H407   1.084   1_545  S
C403        C404   1.404       .  A
C404        H408   1.083       .  S
C409        C410   1.209       .  T
C411        C412   1.406   1_545  A
C411        C416   1.401   1_556  A
C411        H417   1.083       .  S
C412        C413   1.404   1_556  A
C413        C414   1.397   1_565  A
C413        H418   1.083       .  S
C414        C415   1.405       .  A
C414        H419   1.083       .  S
C415        C416   1.405       .  A
C416        H420   1.083       .  S
C421        C422   1.404       .  A
C421        C426   1.395       .  A
C421        H427   1.083       .  S
C422        C423   1.406       .  A
C423        C424   1.401       .  A
C423        H428   1.083       .  S
C424        C425   1.407       .  A
C424        H429   1.083       .  S
C425        C426   1.404       .  A
C426        H430   1.083       .  S
C431        C432   1.407       .  A
C431        C436   1.402       .  A
C431        H437   1.084       .  S
C432        C433   1.405       .  A
C433        C434   1.399       .  A
C433        H438   1.082       .  S
C434        C435   1.406       .  A
C434        H439   1.084       .  S
C435        C436   1.406       .  A
C436        H440   1.082       .  S
C441        C442   1.211       .  T
C443        C444   1.406       .  A
C443        C448   1.401       .  A
C443        H449   1.084       .  S
C444        C445   1.405       .  A
C445        C446   1.402       .  A
C445        H450   1.083       .  S
C446        C447   1.407       .  A
C446        H451   1.083       .  S
C447        C448   1.406       .  A
C448        H452   1.083       .  S
C453        C454   1.406       .  A
C453        C458   1.401       .  A
C453        H459   1.082       .  S
C454        C455   1.406       .  A
C455        C456   1.399       .  A
C455        H460   1.084       .  S
C456        C457   1.405       .  A
C456        H461   1.082       .  S
C457        C458   1.407       .  A
C458        H462   1.084       .  S
C463        C464   1.209       .  T
C465        C466   1.405       .  A
C465        C470   1.398   1_554  A
C465        H471   1.083       .  S
C466        C467   1.406       .  A
C467        C468   1.401       .  A
C467        H472   1.083       .  S
C468        C469   1.405   1_554  A
C468        H473   1.083       .  S
C469        C470   1.406       .  A
C470        H474   1.083       .  S
C475        C476   1.406       .  A
C475        C480   1.402       .  A
C475        H481   1.084   1_655  S
C476        C477   1.405       .  A
C477        C478   1.398       .  A
C477        H482   1.082       .  S
C478        C479   1.405       .  A
C478        H483   1.084       .  S
C479        C480   1.406       .  A
C480        H484   1.082       .  S
C485        C486   1.405       .  A
C485        C490   1.395       .  A
C485        H491   1.083       .  S
C486        C487   1.406       .  A
C487        C488   1.402       .  A
C487        H492   1.083       .  S
C488        C489   1.405       .  A
C488        H493   1.082       .  S
C489        C490   1.404       .  A
C490        H494   1.084       .  S
C495        C496   1.211       .  T
C497        C498   1.404       .  A
C497        C502   1.400       .  A
C497        H503   1.082       .  S
C498        C499   1.406       .  A
C499        C500   1.399       .  A
C499        H504   1.084       .  S
C500        C501   1.405       .  A
C500        H505   1.082       .  S
C501        C502   1.407       .  A
C502        H506   1.084       .  S
C507        C508   1.405       .  A
C507        C512   1.398   1_655  A
C507        H513   1.083   1_655  S
C508        C509   1.406       .  A
C509        C510   1.402       .  A
C509        H514   1.083       .  S
C510        C511   1.405       .  A
C510        H515   1.082       .  S
C511        C512   1.406   1_655  A
C512        H516   1.083       .  S
C517        C518   1.209       .  T
C519        C520   1.404       .  A
C519        C524   1.394       .  A
C519        H525   1.083       .  S
C520        C521   1.407   1_655  A
C521        C522   1.403       .  A
C521        H526   1.083   1_554  S
C522        C523   1.406       .  A
C522        H527   1.083       .  S
C523        C524   1.404   1_455  A
C524        H528   1.083       .  S
