geometry optimzed in LAMMPS
_audit_creation_date              2020-12-01 
_audit_creation_method            'lammps2cif' 
_symmetry_space_group_name_H-M    'P1' 
_symmetry_Int_Tables_number       1 
_symmetry_cell_setting            triclinic 
loop_ 
_symmetry_equiv_pos_as_xyz 
  x,y,z 
_cell_length_a                    49.89472215 
_cell_length_b                    49.891592081517224 
_cell_length_c                    55.47761755204133 
_cell_angle_alpha                 89.96158327991216 
_cell_angle_beta                  90.19336827395836 
_cell_angle_gamma                 90.02023531902609 
loop_ 
_atom_site_label 
_atom_site_type_symbol 
_atom_site_fract_x 
_atom_site_fract_y 
_atom_site_fract_z 
_atom_site_charge 
O1          O  0.43816797  0.71040766  0.08979514    -0.81800
C2          C  0.38301976  0.67773809  0.17363236     0.97600
O3          O  0.37307085  0.67878318  0.15274481    -0.70900
O4          O  0.38140751  0.72671339  0.13569353    -0.74500
Al5        Al  0.38781558  0.69229150  0.12324502     1.49000
C6          C  0.39396632  0.74794025  0.13102291     0.92900
O7          O  0.45304181  0.73033333  0.15448776    -0.80700
O8          O  0.46026828  0.65633198  0.13233612    -0.74200
Al9        Al  0.44418666  0.71872104  0.12266373     1.90100
O10         O  0.45745873  0.69056378  0.17084464    -0.73300
O11         O  0.41206569  0.63920627  0.14033168    -0.73200
O12         O  0.40794081  0.67741938  0.17676637    -0.78800
O13         O  0.39038420  0.65736106  0.10998644    -0.77000
O14         O  0.42193982  0.69296005  0.13294108    -1.13200
O15         O  0.39452865  0.70546434  0.09146700    -0.72400
C16         C  0.41576792  0.70827961  0.07944865     0.98400
C17         C  0.46033010  0.71563185  0.17177534     0.94800
Al18       Al  0.43347339  0.66799007  0.15331441     1.55600
O19         O  0.41740151  0.74715150  0.12229485    -0.77000
C20         C  0.39824122  0.63690020  0.12129110     0.98900
C21         C  0.47820452  0.67047891  0.12283570     0.93800
O22         O  0.47542482  0.69564108  0.12080353    -0.82300
O23         O  0.46353634  0.69098499  0.87599027    -0.81800
C24         C  0.36848397  0.68005998  0.81926553     0.97600
O25         O  0.38839830  0.66460182  0.81990141    -0.70900
O26         O  0.43263105  0.69099535  0.81099715    -0.74500
Al27       Al  0.42227806  0.66670056  0.83564850     1.49000
C28         C  0.44973842  0.70943936  0.81320231     0.92900
O29         O  0.41732019  0.74697854  0.85408905    -0.80700
O30         O  0.39153035  0.69354579  0.89947242    -0.74200
Al31       Al  0.43854982  0.71725125  0.86455321     1.90100
O32         O  0.37841570  0.73317612  0.86750792    -0.73300
O33         O  0.37420181  0.65711553  0.86878680    -0.73200
O34         O  0.36483421  0.69728744  0.83548947    -0.78800
O35         O  0.41266085  0.63957699  0.85804209    -0.77000
O36         O  0.41375852  0.69306135  0.85582989    -1.13200
O37         O  0.45816518  0.66233356  0.84651886    -0.72400
C38         C  0.47161155  0.67104760  0.86408415     0.98400
C39         C  0.39303947  0.75131912  0.85887790     0.94800
Al40       Al  0.38022189  0.69515949  0.86696569     1.55600
O41         O  0.45580482  0.71876610  0.83368770    -0.77000
C42         C  0.38960944  0.63712437  0.86704678     0.98900
C43         C  0.40943879  0.70748787  0.90950516     0.93800
O44         O  0.42649878  0.72028978  0.89723060    -0.82300
O45         O  0.72590919  0.55973843  0.08846201    -0.81800
C46         C  0.68849542  0.61062827  0.17265709     0.97600
O47         O  0.68985419  0.62165165  0.15215200    -0.70900
O48         O  0.73794861  0.61708073  0.13460920    -0.74500
Al49       Al  0.70404138  0.60877127  0.12199638     1.49000
C50         C  0.75989453  0.60584758  0.13017737     0.92900
O51         O  0.74435915  0.54594567  0.15398817    -0.80700
O52         O  0.67140389  0.53502596  0.12739673    -0.74200
Al53       Al  0.73349847  0.55397979  0.12152915     1.90100
O54         O  0.70412251  0.53619678  0.16694565    -0.73300
O55         O  0.65210986  0.58214240  0.13834188    -0.73200
O56         O  0.68932996  0.58554378  0.17490635    -0.78800
O57         O  0.66933473  0.60507281  0.10851490    -0.77000
O58         O  0.70627961  0.57456364  0.13106042    -1.13200
O59         O  0.71772156  0.60299129  0.08994357    -0.72400
C60         C  0.72260866  0.58195171  0.07800774     0.98400
C61         C  0.72921796  0.53516782  0.16936459     0.94800
Al62       Al  0.68133626  0.56090124  0.15023657     1.55600
O63         O  0.76051190  0.58220975  0.12189055    -0.77000
C64         C  0.64926198  0.59700158  0.12010890     0.98900
C65         C  0.68688250  0.51731126  0.11924632     0.93800
O66         O  0.71208515  0.52114152  0.11878380    -0.82300
O67         O  0.70639872  0.52306068  0.86603940    -0.81800
C68         C  0.68935775  0.61401845  0.81206190     0.97600
O69         O  0.69006210  0.58895294  0.80934682    -0.70900
O70         O  0.70225028  0.53868803  0.81740154    -0.74500
Al71       Al  0.67910551  0.56381224  0.83265644     1.49000
C72         C  0.72727648  0.53571572  0.81729486     0.92900
O73         O  0.75630960  0.58282282  0.86546189    -0.80700
O74         O  0.71190127  0.60368850  0.89627229    -0.74200
Al75       Al  0.72886217  0.55506719  0.86462563     1.90100
O76         O  0.73445186  0.61844171  0.85302221    -0.73300
O77         O  0.66419797  0.60622028  0.87500713    -0.73200
O78         O  0.68790864  0.62432914  0.83286882    -0.78800
O79         O  0.64951078  0.58553661  0.84276705    -0.77000
O80         O  0.70263702  0.57631140  0.85386875    -1.13200
O81         O  0.66675010  0.53751590  0.85408650    -0.72400
C82         C  0.68129687  0.51959879  0.86340930     0.98400
C83         C  0.75611723  0.60661079  0.85745010     0.94800
Al84       Al  0.69994080  0.61026673  0.86361485     1.55600
O85         O  0.74166349  0.54659555  0.83315597    -0.77000
C86         C  0.64508075  0.59906229  0.86156531     0.98900
C87         C  0.71666334  0.58237227  0.90786970     0.93800
O88         O  0.71980178  0.56045644  0.89708210    -0.82300
O89         O  0.57403731  0.26946893  0.08996578    -0.81800
C90         C  0.62608776  0.30496379  0.17410290     0.97600
O91         O  0.63718562  0.30354074  0.15367883    -0.70900
O92         O  0.63106683  0.25587157  0.13582742    -0.74500
Al93       Al  0.62388058  0.29016742  0.12334381     1.49000
C94         C  0.61889755  0.23424864  0.13199016     0.92900
O95         O  0.55957820  0.25211344  0.15550322    -0.80700
O96         O  0.55091755  0.32505252  0.12792843    -0.74200
Al97       Al  0.56807166  0.26230215  0.12297467     1.90100
O98         O  0.55109452  0.29301247  0.16754351    -0.73300
O99         O  0.59867217  0.34313762  0.13925191    -0.73200
O100        O  0.60095338  0.30602191  0.17605459    -0.78800
O101        O  0.62162996  0.32517371  0.10992300    -0.77000
O102        O  0.58955580  0.28906053  0.13227329    -1.13200
O103        O  0.61746592  0.27701092  0.09124492    -0.72400
C104        C  0.59615742  0.27274688  0.07942761     0.98400
C105        C  0.54857714  0.26806246  0.17007163     0.94800
Al106      Al  0.57661219  0.31466916  0.15109516     1.55600
O107        O  0.59528983  0.23435430  0.12359833    -0.77000
C108        C  0.61356228  0.34556462  0.12106939     0.98900
C109        C  0.53243847  0.30978089  0.12062237     0.93800
O110        O  0.53582688  0.28452886  0.12018606    -0.82300
O111        O  0.53066706  0.28511847  0.86961389    -0.81800
C112        C  0.61730003  0.30448184  0.81209001     0.97600
O113        O  0.59209000  0.30508896  0.81148609    -0.70900
O114        O  0.54339686  0.29131301  0.82220599    -0.74500
Al115      Al  0.56933577  0.31441018  0.83673272     1.49000
C116        C  0.54245554  0.26617091  0.82032770     0.92900
O117        O  0.59115606  0.23623339  0.86742285    -0.80700
O118        O  0.61340484  0.28128305  0.89699083    -0.74200
Al119      Al  0.56339267  0.26349725  0.86706989     1.90100
O120        O  0.62597070  0.25755193  0.85313209    -0.73300
O121        O  0.61610557  0.32807910  0.87536964    -0.73200
O122        O  0.62997263  0.30381400  0.83195956    -0.78800
O123        O  0.59142679  0.34381642  0.84603569    -0.77000
O124        O  0.58388169  0.29009798  0.85604225    -1.13200
O125        O  0.54524703  0.32545512  0.86056827    -0.72400
C126        C  0.52725231  0.31036462  0.86886619     0.98400
C127        C  0.61447775  0.23604237  0.85861379     0.94800
Al128      Al  0.61848072  0.29239646  0.86381131     1.55600
O129        O  0.55446556  0.25137140  0.83528558    -0.77000
C130        C  0.60721494  0.34756920  0.86343695     0.98900
C131        C  0.59246422  0.27692459  0.90929982     0.93800
O132        O  0.57016659  0.27271344  0.89927039    -0.82300
O133        O  0.28442947  0.42379904  0.08683975    -0.81800
C134        C  0.31858483  0.37413294  0.17268964     0.97600
O135        O  0.31678991  0.36242274  0.15254694    -0.70900
O136        O  0.26934391  0.36884484  0.13424404    -0.74500
Al137      Al  0.30386731  0.37487257  0.12181883     1.49000
C138        C  0.24805257  0.38146886  0.13016669     0.92900
O139        O  0.26693577  0.44109715  0.15206399    -0.80700
O140        O  0.34041401  0.44739393  0.12517336    -0.74200
Al141      Al  0.27723534  0.43116283  0.11975980     1.90100
O142        O  0.30781823  0.44916264  0.16445027    -0.73300
O143        O  0.35731143  0.39944565  0.13774656    -0.73200
O144        O  0.31977774  0.39929959  0.17411838    -0.78800
O145        O  0.33902282  0.37585458  0.10882087    -0.77000
O146        O  0.30346552  0.40952771  0.12987905    -1.13200
O147        O  0.29109259  0.38033013  0.08926939    -0.72400
C148        C  0.28734649  0.40128048  0.07681818     0.98400
C149        C  0.28287609  0.45200239  0.16681625     0.94800
Al150      Al  0.32916450  0.42262255  0.14874035     1.55600
O151        O  0.24872272  0.40466098  0.12097334    -0.77000
C152        C  0.35949082  0.38352502  0.12020506     0.98900
C153        C  0.32551879  0.46557420  0.11675930     0.93800
O154        O  0.30021193  0.46261488  0.11620916    -0.82300
O155        O  0.29260973  0.46141308  0.86561354    -0.81800
C156        C  0.31502205  0.37337650  0.81035592     0.97600
O157        O  0.31656976  0.39851546  0.80941235    -0.70900
O158        O  0.30122615  0.44723004  0.81778243    -0.74500
Al159      Al  0.32402454  0.42228347  0.83461868     1.49000
C160        C  0.27609655  0.44762321  0.81499082     0.92900
O161        O  0.24394612  0.40143105  0.86247665    -0.80700
O162        O  0.28720093  0.37923905  0.89388450    -0.74200
Al163      Al  0.27145565  0.42888644  0.86275757     1.90100
O164        O  0.26548539  0.36654764  0.84881144    -0.73300
O165        O  0.33482413  0.37534803  0.87429082    -0.73200
O166        O  0.31283038  0.36123350  0.83029389    -0.78800
O167        O  0.35298683  0.40052469  0.84650949    -0.77000
O168        O  0.29854530  0.40816471  0.85302857    -1.13200
O169        O  0.33361422  0.44780263  0.85821047    -0.72400
C170        C  0.31771610  0.46532681  0.86607400     0.98400
C171        C  0.24385095  0.37820665  0.85347929     0.94800
Al172      Al  0.29985558  0.37358331  0.86119991     1.55600
O173        O  0.26084879  0.43714221  0.83045205    -0.77000
C174        C  0.35523762  0.38401417  0.86363017     0.98900
C175        C  0.28307412  0.40042882  0.90595125     0.93800
O176        O  0.27936208  0.42263055  0.89554528    -0.82300
O177        O  0.72807906  0.42776017  0.39836956    -0.81800
C178        C  0.69194384  0.37094468  0.31589440     0.97600
O179        O  0.69391964  0.36122723  0.33683137    -0.70900
O180        O  0.74208560  0.36939133  0.35366665    -0.74500
Al181      Al  0.70798019  0.37658803  0.36617114     1.49000
C182        C  0.76369407  0.38167232  0.35745324     0.92900
O183        O  0.74598979  0.44065986  0.33271191    -0.80700
O184        O  0.67291465  0.44930239  0.35687335    -0.74200
Al185      Al  0.73535324  0.43272151  0.36509676     1.90100
O186        O  0.70566647  0.44537413  0.31750738    -0.73300
O187        O  0.65479085  0.40111947  0.34958411    -0.73200
O188        O  0.69155699  0.39585809  0.31260861    -0.78800
O189        O  0.67326528  0.37943734  0.37969195    -0.77000
O190        O  0.70888687  0.41050156  0.35585952    -1.13200
O191        O  0.72154850  0.38425983  0.39775784    -0.72400
C192        C  0.72529795  0.40578315  0.40927328     0.98400
C193        C  0.73069592  0.44807345  0.31582840     0.94800
Al194      Al  0.68341249  0.42197258  0.33592550     1.55600
O195        O  0.76356659  0.40550531  0.36537394    -0.77000
C196        C  0.65270513  0.38693639  0.36834955     0.98900
C197        C  0.68753809  0.46752333  0.36538378     0.93800
O198        O  0.71274539  0.46452133  0.36689541    -0.82300
O199        O  0.70650719  0.45673211  0.61518547    -0.81800
C200        C  0.68805580  0.36062589  0.66834958     0.97600
O201        O  0.67435461  0.38178958  0.66860751    -0.70900
O202        O  0.70251131  0.42421658  0.67840987    -0.74500
Al203      Al  0.67813537  0.41574224  0.65348807     1.49000
C204        C  0.72269879  0.43927854  0.67739122     0.92900
O205        O  0.75835797  0.40478776  0.63553577    -0.80700
O206        O  0.70311278  0.38580519  0.58878421    -0.74200
Al207      Al  0.73050151  0.42910035  0.62574977     1.90100
O208        O  0.74126671  0.36808118  0.62027177    -0.73300
O209        O  0.66540706  0.36955849  0.61857491    -0.73200
O210        O  0.70448412  0.35600604  0.65168356    -0.78800
O211        O  0.65031516  0.40824169  0.63119179    -0.77000
O212        O  0.70410268  0.40603249  0.63327681    -1.13200
O213        O  0.67577769  0.45183665  0.64293983    -0.72400
C214        C  0.68603921  0.46521226  0.62609103     0.98400
C215        C  0.76046005  0.38037223  0.62997138     0.94800
Al216      Al  0.70365926  0.37290852  0.62081203     1.55600
O217        O  0.73345199  0.44489422  0.65741450    -0.77000
C218        C  0.64636127  0.38587074  0.62131766     0.98900
C219        C  0.71870548  0.40277654  0.57947270     0.93800
O220        O  0.73265554  0.41832203  0.59246948    -0.82300
O221        O  0.56960510  0.71255762  0.39858923    -0.81800
C222        C  0.62403903  0.67778649  0.31548538     0.97600
O223        O  0.63415984  0.67802871  0.33641973    -0.70900
O224        O  0.62849451  0.72537453  0.35491447    -0.74500
Al225      Al  0.61990198  0.69121774  0.36640362     1.49000
C226        C  0.61685088  0.74725953  0.35865025     0.92900
O227        O  0.55772238  0.73193203  0.33327477    -0.80700
O228        O  0.54700415  0.65811652  0.35751007    -0.74200
Al229      Al  0.56491279  0.72046794  0.36558038     1.90100
O230        O  0.54910472  0.69199176  0.31899365    -0.73300
O231        O  0.59478769  0.63975253  0.34762746    -0.73200
O232        O  0.59906045  0.67858277  0.31234999    -0.78800
O233        O  0.61572869  0.65624445  0.37898733    -0.77000
O234        O  0.58609885  0.69362132  0.35617891    -1.13200
O235        O  0.61274362  0.70372619  0.39835595    -0.72400
C236        C  0.59132153  0.70850523  0.40962558     0.98400
C237        C  0.54776578  0.71710464  0.31721829     0.94800
Al238      Al  0.57357339  0.66916481  0.33585141     1.55600
O239        O  0.59292089  0.74779880  0.36623150    -0.77000
C240        C  0.60842938  0.63645102  0.36660750     0.98900
C241        C  0.52899024  0.67307416  0.36595567     0.93800
O242        O  0.53238801  0.69834475  0.36712526    -0.82300
O243        O  0.54077673  0.69155743  0.61286109    -0.81800
C244        C  0.63482763  0.68740251  0.67154210     0.97600
O245        O  0.61446172  0.67258055  0.67297569    -0.70900
O246        O  0.56968864  0.69873846  0.67861799    -0.74500
Al247      Al  0.58093441  0.67198436  0.65651671     1.49000
C248        C  0.55131894  0.71545924  0.67463130     0.92900
O249        O  0.58591795  0.74921775  0.63319558    -0.80700
O250        O  0.61121425  0.69198751  0.59045212    -0.74200
Al251      Al  0.56483159  0.71915690  0.62342335     1.90100
O252        O  0.62455425  0.73484166  0.61930489    -0.73300
O253        O  0.62891901  0.65845972  0.62336291    -0.73200
O254        O  0.63898197  0.70166328  0.65324961    -0.78800
O255        O  0.59122147  0.64225219  0.63731247    -0.77000
O256        O  0.58956150  0.69584229  0.63408652    -1.13200
O257        O  0.54548079  0.66606675  0.64490734    -0.72400
C258        C  0.53273369  0.67255424  0.62608670     0.98400
C259        C  0.61020402  0.75325051  0.62802174     0.94800
Al260      Al  0.62295895  0.69669038  0.62248761     1.55600
O261        O  0.54569992  0.72257236  0.65337590    -0.77000
C262        C  0.61369988  0.63874698  0.62751219     0.98900
C263        C  0.59437381  0.70632079  0.57949233     0.93800
O264        O  0.57795097  0.72074442  0.59092629    -0.82300
O265        O  0.28151795  0.55708702  0.39697485    -0.81800
C266        C  0.31523312  0.61450385  0.31497938     0.97600
O267        O  0.31366645  0.62432192  0.33591510    -0.70900
O268        O  0.26627202  0.61597410  0.35378430    -0.74500
Al269      Al  0.30093454  0.60897038  0.36555283     1.49000
C270        C  0.24499856  0.60313055  0.35737050     0.92900
O271        O  0.26387634  0.54502518  0.33092981    -0.80700
O272        O  0.33754175  0.53756766  0.35687324    -0.74200
Al273      Al  0.27435327  0.55242593  0.36376696     1.90100
O274        O  0.30466471  0.53934849  0.31756851    -0.73300
O275        O  0.35421865  0.58614191  0.34774898    -0.73200
O276        O  0.31620334  0.58957314  0.31169554    -0.78800
O277        O  0.33627742  0.60675721  0.37847606    -0.77000
O278        O  0.30040084  0.57516698  0.35506124    -1.13200
O279        O  0.28834587  0.60062131  0.39726398    -0.72400
C280        C  0.28431207  0.57881804  0.40827125     0.98400
C281        C  0.27973520  0.53769011  0.31451658     0.94800
Al282      Al  0.32595514  0.56409456  0.33523312     1.55600
O283        O  0.24570974  0.57897367  0.36436864    -0.77000
C284        C  0.35664823  0.60009800  0.36655242     0.98900
C285        C  0.32314495  0.51896302  0.36508755     0.93800
O286        O  0.29776696  0.52115931  0.36555405    -0.82300
O287        O  0.29496405  0.52122802  0.62037253    -0.81800
C288        C  0.31888376  0.61047139  0.67362452     0.97600
O289        O  0.31895929  0.58532834  0.67558338    -0.70900
O290        O  0.30296824  0.53639286  0.66812227    -0.74500
Al291      Al  0.32667065  0.56032656  0.65150438     1.49000
C292        C  0.27783581  0.53652837  0.67024713     0.92900
O293        O  0.24817255  0.58287834  0.62162933    -0.80700
O294        O  0.29402417  0.60170624  0.58966970    -0.74200
Al295      Al  0.27458535  0.55438002  0.62217102     1.90100
O296        O  0.27113288  0.61813226  0.63275045    -0.73300
O297        O  0.34155350  0.60438184  0.61047668    -0.73200
O298        O  0.31816861  0.62177959  0.65316045    -0.78800
O299        O  0.35673407  0.58069279  0.64061648    -0.77000
O300        O  0.30236455  0.57451973  0.63176048    -1.13200
O301        O  0.33616825  0.53392077  0.62889656    -0.72400
C302        C  0.31999098  0.51667454  0.62084981     0.98400
C303        C  0.24900807  0.60685025  0.62891422     0.94800
Al304      Al  0.30581025  0.60853901  0.62220502     1.55600
O305        O  0.26326381  0.54729796  0.65439108    -0.77000
C306        C  0.36091586  0.59593783  0.62294260     0.98900
C307        C  0.28778011  0.58058064  0.57829583     0.93800
O308        O  0.28250092  0.55911102  0.58924913    -0.82300
O309        O  0.44071251  0.27245190  0.39796151    -0.81800
C310        C  0.38575434  0.31012876  0.31537713     0.97600
O311        O  0.37560639  0.30849413  0.33617884    -0.70900
O312        O  0.38233412  0.26084047  0.35404014    -0.74500
Al313      Al  0.39026999  0.29498461  0.36604254     1.49000
C314        C  0.39445950  0.23892142  0.35635233     0.92900
O315        O  0.45405724  0.25688133  0.33218372    -0.80700
O316        O  0.46290170  0.32958326  0.35837194    -0.74200
Al317      Al  0.44598170  0.26655098  0.36465329     1.90100
O318        O  0.46036019  0.29753498  0.31861563    -0.73300
O319        O  0.41503375  0.34774399  0.34909769    -0.73200
O320        O  0.41073789  0.31070987  0.31249412    -0.78800
O321        O  0.39346701  0.32992158  0.37933368    -0.77000
O322        O  0.42417507  0.29351541  0.35591651    -1.13200
O323        O  0.39773589  0.28188728  0.39775009    -0.72400
C324        C  0.41904474  0.27628983  0.40899746     0.98400
C325        C  0.46186691  0.27258122  0.31589657     0.94800
Al326      Al  0.43622348  0.31915144  0.33642121     1.55600
O327        O  0.41862313  0.23838685  0.36349482    -0.77000
C328        C  0.40111612  0.35025672  0.36786122     0.98900
C329        C  0.48089357  0.31463532  0.36695985     0.93800
O330        O  0.47778292  0.28933050  0.36766850    -0.82300
O331        O  0.46783386  0.28962239  0.61372292    -0.81800
C332        C  0.37204109  0.30362349  0.66740178     0.97600
O333        O  0.39157753  0.31961126  0.66632001    -0.70900
O334        O  0.43591206  0.29466351  0.67670451    -0.74500
Al335      Al  0.42570341  0.31715050  0.65104487     1.49000
C336        C  0.45153588  0.27484840  0.67643317     0.92900
O337        O  0.41933274  0.23552309  0.63532494    -0.80700
O338        O  0.39554375  0.28841100  0.58852425    -0.74200
Al339      Al  0.44168456  0.26454834  0.62488972     1.90100
O340        O  0.38140490  0.24944317  0.62002066    -0.73300
O341        O  0.37751459  0.32518019  0.61810052    -0.73200
O342        O  0.36865257  0.28566127  0.65178299    -0.78800
O343        O  0.41630399  0.34294638  0.62737257    -0.77000
O344        O  0.41727972  0.28960358  0.63207179    -1.13200
O345        O  0.46150872  0.32118758  0.64042685    -0.72400
C346        C  0.47533412  0.31088717  0.62397085     0.98400
C347        C  0.39517464  0.23140873  0.62980369     0.94800
Al348      Al  0.38381851  0.28731648  0.62051245     1.55600
O349        O  0.45765311  0.26340314  0.65682472    -0.77000
C350        C  0.39296773  0.34517158  0.61890505     0.98900
C351        C  0.41340622  0.27419114  0.57888609     0.93800
O352        O  0.43041025  0.26141176  0.59151435    -0.82300
O353        O  0.93692433  0.21185592  0.59269135    -0.81800
C354        C  0.88297764  0.17321062  0.67499885     0.97600
O355        O  0.87280549  0.17430632  0.65412192    -0.70900
O356        O  0.87799847  0.22256084  0.63695465    -0.74500
Al357      Al  0.88700937  0.18893265  0.62455321     1.49000
C358        C  0.88908612  0.24480231  0.63330053     0.92900
O359        O  0.94884233  0.22989935  0.65831218    -0.80700
O360        O  0.96142884  0.15735197  0.63297154    -0.74200
Al361      Al  0.94157895  0.21916330  0.62589300     1.90100
O362        O  0.95691106  0.18973930  0.67257054    -0.73300
O363        O  0.91392888  0.13725324  0.64134042    -0.73200
O364        O  0.90793764  0.17396712  0.67803264    -0.78800
O365        O  0.89156588  0.15435741  0.61099990    -0.77000
O366        O  0.92088852  0.19156944  0.63480555    -1.13200
O367        O  0.89379202  0.20306290  0.59298085    -0.72400
C368        C  0.91503947  0.20861895  0.58169177     0.98400
C369        C  0.95783187  0.21484305  0.67469554     0.94800
Al370      Al  0.93394139  0.16666174  0.65448459     1.55600
O371        O  0.91301092  0.24595944  0.62576813    -0.77000
C372        C  0.89979266  0.13430128  0.62261665     0.98900
C373        C  0.97885075  0.17319348  0.62481333     0.93800
O374        O  0.97449029  0.19824958  0.62400111    -0.82300
O375        O  0.97583733  0.19726205  0.37263066    -0.81800
C376        C  0.88693522  0.17886937  0.31648175     0.97600
O377        O  0.91202980  0.17616652  0.31574872    -0.70900
O378        O  0.96177039  0.18862752  0.32510361    -0.74500
Al379      Al  0.93532836  0.16762732  0.34129267     1.49000
C380        C  0.96431489  0.21356067  0.32226280     0.92900
O381        O  0.91835094  0.24907725  0.36798477    -0.80700
O382        O  0.89434391  0.20642986  0.40009957    -0.74200
Al383      Al  0.94443451  0.22022453  0.36890605     1.90100
O384        O  0.88218619  0.22867947  0.35540809    -0.73300
O385        O  0.88777595  0.15879661  0.38049325    -0.73200
O386        O  0.87483521  0.18178955  0.33636759    -0.78800
O387        O  0.91232739  0.13993240  0.35276018    -0.77000
O388        O  0.92238382  0.19390025  0.35944012    -1.13200
O389        O  0.96002571  0.15695403  0.36529101    -0.72400
C390        C  0.97828550  0.17193433  0.37342542     0.98400
C391        C  0.89484502  0.24989748  0.35953547     0.94800
Al392      Al  0.88777643  0.19403666  0.36751332     1.55600
O393        O  0.95343882  0.22978363  0.33659079    -0.77000
C394        C  0.89601655  0.13812085  0.36992942     0.98900
C395        C  0.91569246  0.21085894  0.41194307     0.93800
O396        O  0.93788627  0.21364722  0.40153812    -0.82300
O397        O  0.06715561  0.77210683  0.59175242    -0.81800
C398        C  0.12184436  0.80889420  0.67476084     0.97600
O399        O  0.13203234  0.80753472  0.65397763    -0.70900
O400        O  0.12614212  0.75986428  0.63575478    -0.74500
Al401      Al  0.11760770  0.79412859  0.62407635     1.49000
C402        C  0.11462354  0.73787928  0.63190763     0.92900
O403        O  0.05520699  0.75382592  0.65735395    -0.80700
O404        O  0.04427087  0.82685687  0.63209738    -0.74200
Al405      Al  0.06246935  0.76468758  0.62489359     1.90100
O406        O  0.04766762  0.79410715  0.67144944    -0.73300
O407        O  0.09173981  0.84637078  0.64138644    -0.73200
O408        O  0.09687323  0.80879747  0.67766455    -0.78800
O409        O  0.11389046  0.82917295  0.61121715    -0.77000
O410        O  0.08375191  0.79188732  0.63410274    -1.13200
O411        O  0.11022723  0.78143323  0.59222770    -0.72400
C412        C  0.08885990  0.77632431  0.58084332     0.98400
C413        C  0.04682201  0.76903882  0.67383037     0.94800
Al414      Al  0.07118285  0.81687590  0.65387032     1.55600
O415        O  0.09055337  0.73729481  0.62454124    -0.77000
C416        C  0.10598863  0.84929193  0.62282861     0.98900
C417        C  0.02627272  0.81163268  0.62394691     0.93800
O418        O  0.02986279  0.78642956  0.62299113    -0.82300
O419        O  0.04332225  0.79458913  0.37674147    -0.81800
C420        C  0.13899674  0.80647005  0.32215605     0.97600
O421        O  0.11923209  0.82211831  0.32283062    -0.70900
O422        O  0.07550969  0.79572112  0.31246387    -0.74500
Al423      Al  0.08498870  0.81952265  0.33756549     1.49000
C424        C  0.05839218  0.77718617  0.31367306     0.92900
O425        O  0.09012305  0.73912205  0.35491954    -0.80700
O426        O  0.11451516  0.79270640  0.40119060    -0.74200
Al427      Al  0.06844712  0.76851198  0.36539936     1.90100
O428        O  0.12840580  0.75272797  0.37003319    -0.73300
O429        O  0.13262498  0.82880123  0.37106623    -0.73200
O430        O  0.14223994  0.78859875  0.33793951    -0.78800
O431        O  0.09385337  0.84608947  0.36066670    -0.77000
O432        O  0.09322765  0.79287242  0.35745873    -1.13200
O433        O  0.04884473  0.82345181  0.34748109    -0.72400
C434        C  0.03539521  0.81471074  0.36494794     0.98400
C435        C  0.11428949  0.73479287  0.36035746     0.94800
Al436      Al  0.12654056  0.79077825  0.36918372     1.55600
O437        O  0.05159118  0.76736668  0.33382405    -0.77000
C438        C  0.11693158  0.84861419  0.36971903     0.98900
C439        C  0.09655206  0.77875669  0.41101288     0.93800
O440        O  0.08007878  0.76526053  0.39852056    -0.82300
O441        O  0.78251465  0.92739367  0.59250627    -0.81800
C442        C  0.81075915  0.86797661  0.67541702     0.97600
O443        O  0.80903038  0.85884550  0.65431521    -0.70900
O444        O  0.76216028  0.86936729  0.63589835    -0.74500
Al445      Al  0.79733944  0.87498599  0.62484202     1.49000
C446        C  0.74160293  0.88287181  0.63096861     0.92900
O447        O  0.76022162  0.94001682  0.65667078    -0.80700
O448        O  0.83514186  0.94674551  0.63682246    -0.74200
Al449      Al  0.77277112  0.93217997  0.62504801     1.90100
O450        O  0.79962764  0.94308601  0.67413607    -0.73300
O451        O  0.85057561  0.89726950  0.64410551    -0.73200
O452        O  0.81152193  0.89277981  0.67928804    -0.78800
O453        O  0.83302680  0.87626706  0.61309685    -0.77000
O454        O  0.79753268  0.90883487  0.63543153    -1.13200
O455        O  0.78589494  0.88353954  0.59270493    -0.72400
C456        C  0.78451451  0.90549080  0.58141892     0.98400
C457        C  0.77470368  0.94709564  0.67419683     0.94800
Al458      Al  0.82213586  0.91908168  0.65674416     1.55600
O459        O  0.74360639  0.90644384  0.62272771    -0.77000
C460        C  0.85319158  0.88302237  0.62542779     0.98900
C461        C  0.82141002  0.96538264  0.62774236     0.93800
O462        O  0.79633606  0.96291566  0.62499652    -0.82300
O463        O  0.79806310  0.96238839  0.37131439    -0.81800
C464        C  0.81909115  0.87390999  0.31611872     0.97600
O465        O  0.81822758  0.89905524  0.31354450    -0.70900
O466        O  0.80493386  0.94914939  0.32277572    -0.74500
Al467      Al  0.82783732  0.92375667  0.33805438     1.49000
C468        C  0.77990602  0.95112682  0.32111386     0.92900
O469        O  0.74971877  0.90176523  0.36711129    -0.80700
O470        O  0.79650335  0.88173014  0.40012536    -0.74200
Al471      Al  0.77652450  0.93003791  0.36807071     1.90100
O472        O  0.77304352  0.86622797  0.35730842    -0.73300
O473        O  0.84356039  0.88020200  0.37906168    -0.73200
O474        O  0.81940057  0.86315500  0.33678649    -0.78800
O475        O  0.85782043  0.90249164  0.34781304    -0.77000
O476        O  0.80388929  0.90979990  0.35810908    -1.13200
O477        O  0.83874741  0.94938397  0.36109967    -0.72400
C478        C  0.82320896  0.96644547  0.37042044     0.98400
C479        C  0.75085159  0.87767022  0.36008786     0.94800
Al480      Al  0.80763717  0.87577227  0.36759856     1.55600
O481        O  0.76499089  0.93928568  0.33599610    -0.77000
C482        C  0.86257404  0.88827336  0.36608537     0.98900
C483        C  0.79033485  0.90263884  0.41162633     0.93800
O484        O  0.78429792  0.92397790  0.40084445    -0.82300
O485        O  0.22473361  0.05985781  0.59202196    -0.81800
C486        C  0.19147896  0.10997522  0.67796973     0.97600
O487        O  0.19362278  0.12179727  0.65786328    -0.70900
O488        O  0.24096555  0.11457937  0.63940834    -0.74500
Al489      Al  0.20626722  0.10920069  0.62700344     1.49000
C490        C  0.26195411  0.10196355  0.63431451     0.92900
O491        O  0.24178483  0.04248474  0.65719305    -0.80700
O492        O  0.16822366  0.03766420  0.62980548    -0.74200
Al493      Al  0.23170672  0.05242432  0.62487078     1.90100
O494        O  0.20071150  0.03496838  0.66921053    -0.73300
O495        O  0.15237243  0.08553813  0.64245540    -0.73200
O496        O  0.18976082  0.08483288  0.67920073    -0.78800
O497        O  0.17118718  0.10877902  0.61367949    -0.77000
O498        O  0.20597503  0.07457058  0.63493717    -1.13200
O499        O  0.21897396  0.10348082  0.59458938    -0.72400
C500        C  0.22275362  0.08255594  0.58214275     0.98400
C501        C  0.22559233  0.03181899  0.67176613     0.94800
Al502      Al  0.17997672  0.06192884  0.65358078     1.55600
O503        O  0.26070535  0.07849105  0.62576528    -0.77000
C504        C  0.15052195  0.10091591  0.62449061     0.98900
C505        C  0.18261630  0.01918225  0.62136668     0.93800
O506        O  0.20801894  0.02137780  0.62121858    -0.82300
O507        O  0.21257838  0.02453819  0.37093931    -0.81800
C508        C  0.18735338  0.11371293  0.31779386     0.97600
O509        O  0.18595072  0.08862403  0.31610811    -0.70900
O510        O  0.20165219  0.03998941  0.32327340    -0.74500
Al511      Al  0.17968931  0.06408346  0.34110518     1.49000
C512        C  0.22649237  0.03994738  0.31926293     0.92900
O513        O  0.26086632  0.08494740  0.36663568    -0.80700
O514        O  0.21826592  0.10598831  0.40018698    -0.74200
Al515      Al  0.23358375  0.05710740  0.36764443     1.90100
O516        O  0.23822832  0.12027954  0.35522890    -0.73300
O517        O  0.16964941  0.10934017  0.38215989    -0.73200
O518        O  0.18991856  0.12513905  0.33801493    -0.78800
O519        O  0.15100591  0.08478953  0.35415940    -0.77000
O520        O  0.20584025  0.07788353  0.35912353    -1.13200
O521        O  0.17129319  0.03806505  0.36438691    -0.72400
C522        C  0.18748870  0.02057808  0.37184057     0.98400
C523        C  0.26026220  0.10872118  0.35875568     0.94800
Al524      Al  0.20425727  0.11219685  0.36816811     1.55600
O525        O  0.24272453  0.04908587  0.33474278    -0.77000
C526        C  0.14901033  0.10008205  0.37210350     0.98900
C527        C  0.22372842  0.08475808  0.41172506     0.93800
O528        O  0.22742196  0.06284554  0.40086843    -0.82300
O529        O  0.80823756  0.02950880  0.11647303    -0.81800
C530        C  0.82005364  0.12600192  0.17060865     0.97600
O531        O  0.83530773  0.10592507  0.17044289    -0.70900
O532        O  0.80858049  0.06232607  0.18030276    -0.74500
Al533      Al  0.83279790  0.07167026  0.15559907     1.49000
C534        C  0.78960801  0.04572313  0.17888716     0.92900
O535        O  0.75235578  0.07715544  0.13612821    -0.80700
O536        O  0.80640200  0.10119829  0.09093272    -0.74200
Al537      Al  0.78210397  0.05516684  0.12690636     1.90100
O538        O  0.76691096  0.11568693  0.12241792    -0.73300
O539        O  0.84338908  0.11877029  0.12125591    -0.73200
O540        O  0.80284139  0.12940878  0.15427683    -0.78800
O541        O  0.85988074  0.08022539  0.13314483    -0.77000
O542        O  0.80653612  0.07995907  0.13510934    -1.13200
O543        O  0.83696204  0.03549864  0.14579165    -0.72400
C544        C  0.82845787  0.02187734  0.12829293     0.98400
C545        C  0.74842553  0.10147635  0.13102313     0.94800
Al546      Al  0.80495331  0.11327781  0.12314123     1.55600
O547        O  0.77986550  0.03907972  0.15863270    -0.77000
C548        C  0.86304794  0.10295316  0.12366059     0.98900
C549        C  0.79264714  0.08292726  0.08123663     0.93800
O550        O  0.77985403  0.06609683  0.09380165    -0.82300
O551        O  0.78068845  0.05659671  0.90093037    -0.81800
C552        C  0.81162515  0.11291399  0.81711835     0.97600
O553        O  0.81031355  0.12292352  0.83796164    -0.70900
O554        O  0.76337396  0.11410371  0.85642837    -0.74500
Al555      Al  0.79817906  0.10789880  0.86785628     1.49000
C556        C  0.74228396  0.10121467  0.86065302     0.92900
O557        O  0.76038799  0.04310289  0.83604148    -0.80700
O558        O  0.83475544  0.03616766  0.85858089    -0.74200
Al559      Al  0.77211628  0.05119079  0.86804328     1.90100
O560        O  0.80027979  0.03797973  0.82035018    -0.73300
O561        O  0.85076483  0.08467758  0.84936728    -0.73200
O562        O  0.81199757  0.08797471  0.81402035    -0.78800
O563        O  0.83369917  0.10612657  0.88013654    -0.77000
O564        O  0.79760473  0.07386111  0.85796986    -1.13200
O565        O  0.78642633  0.10025115  0.89983635    -0.72400
C566        C  0.78357750  0.07873064  0.91153887     0.98400
C567        C  0.77525229  0.03532445  0.81911482     0.94800
Al568      Al  0.82234506  0.06265893  0.83740027     1.55600
O569        O  0.74329296  0.07757769  0.86895396    -0.77000
C570        C  0.85367736  0.09898556  0.86792248     0.98900
C571        C  0.82080927  0.01750324  0.86724082     0.93800
O572        O  0.79558929  0.01994810  0.86930768    -0.82300
O573        O  0.97677171  0.78583676  0.12074646    -0.81800
C574        C  0.88686478  0.80839523  0.17467688     0.97600
O575        O  0.91193526  0.80716591  0.17740552    -0.70900
O576        O  0.96168348  0.79280601  0.16942130    -0.74500
Al577      Al  0.93711176  0.81590004  0.15321124     1.49000
C578        C  0.96348539  0.76773206  0.17096121     0.92900
O579        O  0.91577046  0.73761146  0.12333211    -0.80700
O580        O  0.89552832  0.78240195  0.09158902    -0.74200
Al581      Al  0.94412319  0.76443764  0.12322084     1.90100
O582        O  0.88069159  0.76066200  0.13495722    -0.73300
O583        O  0.89386791  0.83018694  0.11118022    -0.73200
O584        O  0.87632756  0.80802417  0.15392443    -0.78800
O585        O  0.91623586  0.84564018  0.14211821    -0.77000
O586        O  0.92359611  0.79168002  0.13318062    -1.13200
O587        O  0.96325705  0.82631518  0.13082709    -0.72400
C588        C  0.98067456  0.81097586  0.12189117     0.98400
C589        C  0.89191740  0.73856894  0.13100016     0.94800
Al590      Al  0.88955032  0.79486606  0.12363506     1.55600
O591        O  0.95271276  0.75286093  0.15532615    -0.77000
C592        C  0.90201921  0.84964633  0.12364109     0.98900
C593        C  0.91640190  0.77682006  0.07984974     0.93800
O594        O  0.93835616  0.77237052  0.09035059    -0.82300
O595        O  0.93637220  0.77005844  0.89979275    -0.81800
C596        C  0.88410948  0.80721680  0.81628363     0.97600
O597        O  0.87327947  0.80567317  0.83682987    -0.70900
O598        O  0.87869174  0.75801786  0.85482985    -0.74500
Al599      Al  0.88664853  0.79205943  0.86703928     1.49000
C600        C  0.89042129  0.73622109  0.85882070     0.92900
O601        O  0.94996238  0.75299069  0.83460245    -0.80700
O602        O  0.95956897  0.82580861  0.86185816    -0.74200
Al603      Al  0.94189840  0.76322912  0.86699266     1.90100
O604        O  0.95918442  0.79360603  0.82222786    -0.73300
O605        O  0.91225037  0.84445751  0.85050595    -0.73200
O606        O  0.90923886  0.80745086  0.81397775    -0.78800
O607        O  0.88978723  0.82685697  0.88034067    -0.77000
O608        O  0.92076275  0.79030604  0.85777069    -1.13200
O609        O  0.89318682  0.77883211  0.89898668    -0.72400
C610        C  0.91446110  0.77357587  0.91047592     0.98400
C611        C  0.96106847  0.76857169  0.81982459     0.94800
Al612      Al  0.93391517  0.81569691  0.83875500     1.55600
O613        O  0.91428740  0.73579332  0.86654684    -0.77000
C614        C  0.89754301  0.84706798  0.86876672     0.98900
C615        C  0.97747020  0.81047185  0.87006172     0.93800
O616        O  0.97421474  0.78519011  0.87002038    -0.82300
O617        O  0.21280986  0.96283992  0.12092014    -0.81800
C618        C  0.19141631  0.87602278  0.17723167     0.97600
O619        O  0.18905323  0.90114054  0.17735457    -0.70900
O620        O  0.20206911  0.95033588  0.16749975    -0.74500
Al621      Al  0.18143873  0.92353693  0.15123164     1.49000
C622        C  0.22681831  0.95241466  0.17177113     0.92900
O623        O  0.26336865  0.90428740  0.12730085    -0.80700
O624        O  0.22136689  0.88037097  0.09439653    -0.74200
Al625      Al  0.23516955  0.93100949  0.12546656     1.90100
O626        O  0.24211589  0.86859738  0.13969743    -0.73300
O627        O  0.17330336  0.87528403  0.11270771    -0.73200
O628        O  0.19451611  0.86315113  0.15773563    -0.78800
O629        O  0.15384383  0.90031172  0.13971627    -0.77000
O630        O  0.20816986  0.90965718  0.13422892    -1.13200
O631        O  0.17187681  0.94768704  0.12635744    -0.72400
C632        C  0.18755659  0.96602264  0.11952748     0.98400
C633        C  0.26362207  0.88064485  0.13541240     0.94800
Al634      Al  0.20794495  0.87486080  0.12670272     1.55600
O635        O  0.24361963  0.94061713  0.15845391    -0.77000
C636        C  0.15243249  0.88359853  0.12279815     0.98900
C637        C  0.22656093  0.90130457  0.08227238     0.93800
O638        O  0.22968554  0.92373719  0.09242011    -0.82300
O639        O  0.22448068  0.92544434  0.90097790    -0.81800
C640        C  0.18924979  0.86926793  0.81848945     0.97600
O641        O  0.19073831  0.85914643  0.83932971    -0.70900
O642        O  0.23843484  0.86687044  0.85704427    -0.74500
Al643      Al  0.20406665  0.87422115  0.86904474     1.49000
C644        C  0.25992311  0.87948256  0.86039077     0.92900
O645        O  0.24220275  0.93794157  0.83515502    -0.80700
O646        O  0.16882303  0.94710154  0.86003490    -0.74200
Al647      Al  0.23156196  0.93041070  0.86774858     1.90100
O648        O  0.20169409  0.94365043  0.82086721    -0.73300
O649        O  0.15114366  0.89872359  0.85175731    -0.73200
O650        O  0.18852774  0.89420177  0.81550662    -0.78800
O651        O  0.16896089  0.87688729  0.88205022    -0.77000
O652        O  0.20506824  0.90822048  0.85877457    -1.13200
O653        O  0.21717485  0.88199483  0.90085433    -0.72400
C654        C  0.22175731  0.90355344  0.91209141     0.98400
C655        C  0.22669816  0.94512642  0.81836050     0.94800
Al656      Al  0.17970958  0.91990178  0.83883716     1.55600
O657        O  0.25966778  0.90337894  0.86803923    -0.77000
C658        C  0.14863722  0.88444756  0.87038470     0.98900
C659        C  0.18362275  0.96534566  0.86836022     0.93800
O660        O  0.20887370  0.96223971  0.86953181    -0.82300
O661        O  0.04352585  0.19591540  0.11621048    -0.81800
C662        C  0.13812366  0.18255012  0.17222119     0.97600
O663        O  0.11870412  0.16640455  0.17099352    -0.70900
O664        O  0.07381062  0.19047193  0.17987504    -0.74500
Al665      Al  0.08501689  0.16812181  0.15454114     1.49000
C666        C  0.05793748  0.21003778  0.17925098     0.92900
O667        O  0.09068288  0.24989730  0.13990889    -0.80700
O668        O  0.11549234  0.19806103  0.09241597    -0.74200
Al669      Al  0.06898385  0.22096441  0.12836894     1.90100
O670        O  0.12903161  0.23664945  0.12515733    -0.73300
O671        O  0.13375598  0.16048782  0.12180371    -0.73200
O672        O  0.14206383  0.19978507  0.15608479    -0.78800
O673        O  0.09550939  0.14200914  0.13139664    -0.77000
O674        O  0.09351042  0.19585875  0.13578328    -1.13200
O675        O  0.04947335  0.16375589  0.14258527    -0.72400
C676        C  0.03586494  0.17447835  0.12602808     0.98400
C677        C  0.11490600  0.25433735  0.13507093     0.94800
Al678      Al  0.12704523  0.19853910  0.12470943     1.55600
O679        O  0.05208576  0.22142898  0.15957703    -0.77000
C680        C  0.11872753  0.14011565  0.12272330     0.98900
C681        C  0.09776103  0.21261473  0.08279946     0.93800
O682        O  0.08082997  0.22520006  0.09546580    -0.82300
O683        O  0.06723276  0.21219269  0.90214164    -0.81800
C684        C  0.12131894  0.17443526  0.81940101     0.97600
O685        O  0.13142918  0.17583233  0.84025879    -0.70900
O686        O  0.12550058  0.22444583  0.85697697    -0.74500
Al687      Al  0.11730016  0.19031320  0.86974985     1.49000
C688        C  0.11352393  0.24628044  0.86051267     0.92900
O689        O  0.05464693  0.22997239  0.83652481    -0.80700
O690        O  0.04377401  0.15701785  0.86177714    -0.74200
Al691      Al  0.06218713  0.21925298  0.86891551     1.90100
O692        O  0.04657380  0.18974916  0.82255555    -0.73300
O693        O  0.09145459  0.13803482  0.85283100    -0.73200
O694        O  0.09633192  0.17519853  0.81625743    -0.78800
O695        O  0.11344698  0.15546453  0.88327325    -0.77000
O696        O  0.08333469  0.19217417  0.85979303    -1.13200
O697        O  0.11051578  0.20425810  0.90143908    -0.72400
C698        C  0.08930698  0.20943048  0.91294917     0.98400
C699        C  0.04474548  0.21483454  0.82068628     0.94800
Al700      Al  0.07064138  0.16712290  0.84006094     1.55600
O701        O  0.08994855  0.24656341  0.86884733    -0.77000
C702        C  0.10568400  0.13526495  0.87152373     0.98900
C703        C  0.02589010  0.17237969  0.86979109     0.93800
O704        O  0.02973021  0.19751997  0.87096444    -0.82300
C705        C  0.10541367  0.20993519  0.97573061     0.20400
C706        C  0.12091332  0.20457442  0.99627100    -0.39500
C707        C  0.10879479  0.21041658  0.01837847     0.19400
C708        C  0.08324688  0.22106697  0.02002666     0.22000
C709        C  0.06760970  0.22628907  0.99941375    -0.40000
C710        C  0.07968193  0.22018192  0.97721305     0.20800
N711        N  0.11217955  0.20530087  0.95270749    -0.33300
C712        C  0.09053001  0.21231607  0.93933986    -0.10800
C713        C  0.06984125  0.22177831  0.95395988    -0.29600
N714        N  0.07615103  0.22407306  0.04327341    -0.46200
C715        C  0.09725309  0.21488312  0.05636786    -0.05500
C716        C  0.11796650  0.20632288  0.04146157    -0.22900
H717        H  0.14079709  0.19600704  0.99513663     0.18900
H718        H  0.04740706  0.23406217  0.00058446     0.17700
H719        H  0.05018693  0.22856715  0.94834404     0.14000
H720        H  0.13697666  0.19769444  0.04682955     0.13900
H721        H  0.13021923  0.19727731  0.94650146     0.32000
H722        H  0.05783709  0.23107819  0.04980838     0.34800
C723        C  0.14059534  0.02176427  0.87681235     0.20400
C724        C  0.11709460  0.03667933  0.87305944    -0.39500
C725        C  0.11906637  0.06426445  0.87753895     0.19400
C726        C  0.14256378  0.07607284  0.88556750     0.22000
C727        C  0.16619588  0.06114830  0.88906876    -0.40000
C728        C  0.16433032  0.03354030  0.88426685     0.20800
N729        N  0.14441292  0.99578135  0.87162507    -0.33300
C730        C  0.17084325  0.99086752  0.87536214    -0.10800
C731        C  0.18395279  0.01392949  0.88346988    -0.29600
N732        N  0.13986303  0.10289401  0.88647255    -0.46200
C733        C  0.11473593  0.10822907  0.87839860    -0.05500
C734        C  0.10110926  0.08461275  0.87277753    -0.22900
H735        H  0.09895428  0.02765260  0.86602731     0.18900
H736        H  0.18495006  0.07054806  0.89409296     0.17700
H737        H  0.20517029  0.01640772  0.88691822     0.14000
H738        H  0.08143518  0.08273064  0.86466561     0.13900
H739        H  0.13015199  0.98255335  0.86460315     0.32000
H740        H  0.15490374  0.11683119  0.89033351     0.34800
C741        C  0.17342707  0.03512327  0.10781894     0.20400
C742        C  0.17926375  0.06270294  0.10748967    -0.39500
C743        C  0.15711132  0.08005260  0.10882332     0.19400
C744        C  0.13109049  0.07063448  0.11049304     0.22000
C745        C  0.12523756  0.04305344  0.11070162    -0.40000
C746        C  0.14738848  0.02571315  0.10930483     0.20800
N747        N  0.19104523  0.01474336  0.10941682    -0.33300
C748        C  0.17620101  0.99216553  0.11216424    -0.10800
C749        C  0.14884387  0.99822109  0.11190619    -0.29600
N750        N  0.11390275  0.09101637  0.11423891    -0.46200
C751        C  0.12902224  0.11362617  0.11504380    -0.05500
C752        C  0.15606246  0.10757980  0.11143568    -0.22900
H753        H  0.19965387  0.07011134  0.10736811     0.18900
H754        H  0.10501814  0.03563229  0.11299405     0.17700
H755        H  0.13234240  0.98462103  0.11518911     0.14000
H756        H  0.17289109  0.12123213  0.11246791     0.13900
H757        H  0.21189931  0.01632491  0.11036802     0.32000
H758        H  0.09333763  0.08947149  0.11742886     0.34800
C759        C  0.23239148  0.91316378  0.01895827     0.20400
C760        C  0.23518131  0.92880048  0.99808112    -0.39500
C761        C  0.23049693  0.91551268  0.97621547     0.19400
C762        C  0.22366568  0.88864467  0.97520045     0.22000
C763        C  0.22087600  0.87297181  0.99611650    -0.40000
C764        C  0.22548262  0.88630813  0.01804329     0.20800
N765        N  0.23448714  0.92149113  0.04189008    -0.33300
C766        C  0.22870099  0.89990803  0.05579531    -0.10800
C767        C  0.22317711  0.87746893  0.04156855    -0.29600
N768        N  0.21980610  0.88091471  0.95223101    -0.46200
C769        C  0.22413250  0.90304655  0.93856028    -0.05500
C770        C  0.23084691  0.92502222  0.95288894    -0.22900
H771        H  0.24018122  0.94989689  0.99883710     0.18900
H772        H  0.21511251  0.85207151  0.99538534     0.17700
H773        H  0.21728062  0.85769982  0.04760150     0.14000
H774        H  0.23522222  0.94524865  0.94702551     0.13900
H775        H  0.23878076  0.94093431  0.04772515     0.32000
H776        H  0.21431718  0.86183655  0.94623525     0.34800
C777        C  0.03460458  0.85216611  0.87861047     0.20400
C778        C  0.05004459  0.87503662  0.87389549    -0.39500
C779        C  0.07765352  0.87239052  0.87775347     0.19400
C780        C  0.08909488  0.84884305  0.88605533     0.22000
C781        C  0.07360808  0.82576772  0.89052392    -0.40000
C782        C  0.04589351  0.82830802  0.88634186     0.20800
N783        N  0.00848381  0.84894066  0.87373894    -0.33300
C784        C  0.00296730  0.82272593  0.87778104    -0.10800
C785        C  0.02574896  0.80918287  0.88600301    -0.29600
N786        N  0.11601339  0.85090553  0.88628959    -0.46200
C787        C  0.12164282  0.87569305  0.87756904    -0.05500
C788        C  0.09821822  0.88968665  0.87216121    -0.22900
H789        H  0.04132933  0.89317089  0.86655886     0.18900
H790        H  0.08262863  0.80689274  0.89571309     0.17700
H791        H  0.02777755  0.78792830  0.88946195     0.14000
H792        H  0.09653653  0.90922932  0.86380125     0.13900
H793        H  0.99564956  0.86331623  0.86632200     0.32000
H794        H  0.12972232  0.83571372  0.89031043     0.34800
C795        C  0.04870384  0.82717758  0.10796598     0.20400
C796        C  0.07632556  0.82233406  0.10528044    -0.39500
C797        C  0.09315991  0.84473899  0.10830349     0.19400
C798        C  0.08316634  0.86985535  0.11393922     0.22000
C799        C  0.05570134  0.87472839  0.11632603    -0.40000
C800        C  0.03896277  0.85253124  0.11302153     0.20800
N801        N  0.02874942  0.80895637  0.10872333    -0.33300
C802        C  0.00632998  0.82296291  0.11444624    -0.10800
C803        C  0.01193502  0.85019114  0.11685746    -0.29600
N804        N  0.10311881  0.88711992  0.11862626    -0.46200
C805        C  0.12608522  0.87311884  0.11571202    -0.05500
C806        C  0.12078708  0.84664253  0.10904132    -0.22900
H807        H  0.08419668  0.80243272  0.10214055     0.18900
H808        H  0.04799055  0.89415356  0.12152671     0.17700
H809        H  0.99843708  0.86585679  0.12271687     0.14000
H810        H  0.13511164  0.83053583  0.10691772     0.13900
H811        H  0.03060080  0.78817694  0.10716220     0.32000
H812        H  0.10123076  0.90691557  0.12451451     0.34800
C813        C  0.92661761  0.76831948  0.01682855     0.20400
C814        C  0.94075877  0.76180884  0.99588719    -0.39500
C815        C  0.92701615  0.76616338  0.97421558     0.19400
C816        C  0.90112716  0.77615264  0.97341664     0.22000
C817        C  0.88694131  0.78261649  0.99439209    -0.40000
C818        C  0.90071168  0.77827038  0.01610769     0.20800
N819        N  0.93547867  0.76655245  0.03961786    -0.33300
C820        C  0.91503326  0.77533274  0.05350862    -0.10800
C821        C  0.89297922  0.78280282  0.03953904    -0.29600
N822        N  0.89295803  0.77939255  0.95051833    -0.46200
C823        C  0.91392531  0.77160036  0.93676575    -0.05500
C824        C  0.93545359  0.76308983  0.95086035    -0.22900
H825        H  0.96110435  0.75430068  0.99641651     0.18900
H826        H  0.86683502  0.79073753  0.99383497     0.17700
H827        H  0.87400526  0.79071893  0.04570015     0.14000
H828        H  0.95489719  0.75627350  0.94481118     0.13900
H829        H  0.95427581  0.75983994  0.04536496     0.32000
H830        H  0.87463415  0.78717093  0.94462664     0.34800
C831        C  0.84119576  0.95064532  0.88183705     0.20400
C832        C  0.83802323  0.92346821  0.88789769    -0.39500
C833        C  0.86029934  0.90694610  0.88350578     0.19400
C834        C  0.88371888  0.91672525  0.87344637     0.22000
C835        C  0.88697125  0.94383238  0.86760874    -0.40000
C836        C  0.86492895  0.96034175  0.87234658     0.20800
N837        N  0.82244290  0.97007349  0.88238396    -0.33300
C838        C  0.83450068  0.99221655  0.87324936    -0.10800
C839        C  0.86103385  0.98691736  0.86703317    -0.29600
N840        N  0.90069651  0.89666305  0.86840620    -0.46200
C841        C  0.88813842  0.87390928  0.87539779    -0.05500
C842        C  0.86304328  0.87948659  0.88522950    -0.22900
H843        H  0.81929283  0.91558680  0.89467650     0.18900
H844        H  0.90498177  0.95134215  0.85912260     0.17700
H845        H  0.87507433  0.00031224  0.85832433     0.14000
H846        H  0.84794379  0.86521287  0.89081315     0.13900
H847        H  0.80244325  0.96809748  0.88759748     0.32000
H848        H  0.91904498  0.89819478  0.85948783     0.34800
C849        C  0.91335622  0.13490777  0.88254587     0.20400
C850        C  0.92897517  0.15777480  0.88749493    -0.39500
C851        C  0.95663384  0.15518411  0.88323396     0.19400
C852        C  0.96770326  0.13151988  0.87488611     0.22000
C853        C  0.95212751  0.10890470  0.86962697    -0.40000
C854        C  0.92461519  0.11156788  0.87367702     0.20800
N855        N  0.88646883  0.13273832  0.88328575    -0.33300
C856        C  0.88074521  0.10805551  0.87439016    -0.10800
C857        C  0.90400689  0.09429123  0.86827195    -0.29600
N858        N  0.99394146  0.13451975  0.87067362    -0.46200
C859        C  0.99981024  0.16039092  0.87590669    -0.05500
C860        C  0.97706623  0.17397191  0.88400546    -0.22900
H861        H  0.92013556  0.17645475  0.89337771     0.18900
H862        H  0.96070570  0.09086437  0.86205066     0.17700
H863        H  0.90551286  0.07482454  0.85977328     0.14000
H864        H  0.97537246  0.19502474  0.88842809     0.13900
H865        H  0.87281085  0.14771600  0.88793818     0.32000
H866        H  0.00675200  0.12020196  0.86322792     0.34800
C867        C  0.85078118  0.95645072  0.11040774     0.20400
C868        C  0.84865620  0.93028190  0.10102387    -0.39500
C869        C  0.86910324  0.91230363  0.10787358     0.19400
C870        C  0.88993723  0.91995403  0.12292016     0.22000
C871        C  0.89210175  0.94596314  0.13216238    -0.40000
C872        C  0.87179010  0.96378087  0.12536800     0.20800
N873        N  0.83292569  0.97667332  0.10842716    -0.33300
C874        C  0.84266531  0.99675430  0.12247442    -0.10800
C875        C  0.86694456  0.98944431  0.13309323    -0.29600
N876        N  0.90516349  0.89883034  0.12893153    -0.46200
C877        C  0.89404444  0.87734550  0.11785084    -0.05500
C878        C  0.87167827  0.88495871  0.10421021    -0.22900
H879        H  0.83177072  0.92407204  0.09007688     0.18900
H880        H  0.90783394  0.95158925  0.14465813     0.17700
H881        H  0.87879750  0.00092488  0.14579959     0.14000
H882        H  0.85792371  0.87195560  0.09464153     0.13900
H883        H  0.81467337  0.97634392  0.09915854     0.32000
H884        H  0.92119964  0.89876595  0.14109396     0.34800
C885        C  0.92382449  0.13755690  0.10929680     0.20400
C886        C  0.94007240  0.15998505  0.10444641    -0.39500
C887        C  0.96756532  0.15689262  0.10947096     0.19400
C888        C  0.97792600  0.13331657  0.11881192     0.22000
C889        C  0.96179746  0.11088882  0.12338914    -0.40000
C890        C  0.93446429  0.11391290  0.11821267     0.20800
N891        N  0.89684684  0.13620502  0.10857701    -0.33300
C892        C  0.89039164  0.11154189  0.11716047    -0.10800
C893        C  0.91337206  0.09702180  0.12304793    -0.29600
N894        N  0.00389020  0.13630576  0.12464055    -0.46200
C895        C  0.01029439  0.16193097  0.11895854    -0.05500
C896        C  0.98824958  0.17535644  0.10913681    -0.22900
H897        H  0.93176245  0.17882437  0.09827790     0.18900
H898        H  0.96975531  0.09280716  0.13148697     0.17700
H899        H  0.91440459  0.07751491  0.13155845     0.14000
H900        H  0.98699341  0.19632021  0.10423530     0.13900
H901        H  0.88364401  0.15163931  0.10397185     0.32000
H902        H  0.01616602  0.12216990  0.13311895     0.34800
C903        C  0.79435121  0.09297581  0.01759723     0.20400
C904        C  0.79862059  0.10711063  0.99611930    -0.39500
C905        C  0.79152919  0.09356200  0.97494289     0.19400
C906        C  0.78130105  0.06775458  0.97507498     0.22000
C907        C  0.77681343  0.05367657  0.99660126    -0.40000
C908        C  0.78359819  0.06738179  0.01784533     0.20800
N909        N  0.79926445  0.10155572  0.04010126    -0.33300
C910        C  0.79126800  0.08144008  0.05482772    -0.10800
C911        C  0.78137642  0.05976304  0.04164163    -0.29600
N912        N  0.77686396  0.05912809  0.95246426    -0.46200
C913        C  0.78411214  0.07973473  0.93794872    -0.05500
C914        C  0.79324658  0.10156810  0.95129429    -0.22900
H915        H  0.80682477  0.12719690  0.99591521     0.18900
H916        H  0.76861541  0.03358965  0.99679789     0.17700
H917        H  0.77361612  0.04101984  0.04854986     0.14000
H918        H  0.80069560  0.12051307  0.94454562     0.13900
H919        H  0.80718751  0.12011417  0.04515345     0.32000
H920        H  0.76950430  0.04040457  0.94722718     0.34800
C921        C  0.24844640  0.98302628  0.22696241     0.20400
C922        C  0.25885384  0.98377000  0.25069736    -0.39500
C923        C  0.24929058  0.00466659  0.26556379     0.19400
C924        C  0.23071094  0.02310339  0.25722797     0.22000
C925        C  0.22046797  0.02242091  0.23374140    -0.40000
C926        C  0.22998641  0.00179613  0.21905483     0.20800
N927        N  0.25173144  0.96369605  0.21012149    -0.33300
C928        C  0.23495918  0.97030438  0.19167603    -0.10800
C929        C  0.22128986  0.99395969  0.19666471    -0.29600
N930        N  0.22212410  0.03881478  0.27515914    -0.46200
C931        C  0.23517998  0.03075596  0.29529755    -0.05500
C932        C  0.25263024  0.00956687  0.29010071    -0.22900
H933        H  0.27232059  0.96848723  0.25743951     0.18900
H934        H  0.20501839  0.03614254  0.22773467     0.17700
H935        H  0.20544679  0.00305044  0.18607140     0.14000
H936        H  0.26416688  0.99781111  0.30282876     0.13900
H937        H  0.26287508  0.94608425  0.21189472     0.32000
H938        H  0.20681052  0.05304439  0.27411770     0.34800
C939        C  0.18851081  0.13922520  0.25808451     0.20400
C940        C  0.19141012  0.13750464  0.23306295    -0.39500
C941        C  0.17931209  0.15804075  0.21976105     0.19400
C942        C  0.16535329  0.17878897  0.23058366     0.22000
C943        C  0.16288249  0.18074653  0.25571826    -0.40000
C944        C  0.17506790  0.16019730  0.26904682     0.20800
N945        N  0.19515084  0.12044068  0.27428105    -0.33300
C946        C  0.18608780  0.12958282  0.29570750    -0.10800
C947        C  0.17374052  0.15446689  0.29332897    -0.29600
N948        N  0.15138080  0.19264230  0.21402537    -0.46200
C949        C  0.15632350  0.18046779  0.19269042    -0.05500
C950        C  0.17393053  0.15910786  0.19548505    -0.22900
H951        H  0.20065478  0.12036114  0.22450261     0.18900
H952        H  0.15076890  0.19606392  0.26416696     0.17700
H953        H  0.16355506  0.16582382  0.30715946     0.14000
H954        H  0.17898900  0.14413484  0.18213612     0.13900
H955        H  0.20446069  0.10209684  0.27085788     0.32000
H956        H  0.13685439  0.20723979  0.21738393     0.34800
C957        C  0.22936571  0.07231009  0.51865697     0.20400
C958        C  0.23250823  0.05731036  0.49750609    -0.39500
C959        C  0.22978456  0.07155955  0.47587237     0.19400
C960        C  0.22433900  0.09874845  0.47522155     0.22000
C961        C  0.22129151  0.11385733  0.49647483    -0.40000
C962        C  0.22401935  0.09953387  0.51822361     0.20800
N963        N  0.23000443  0.06307493  0.54138782    -0.33300
C964        C  0.22496904  0.08447580  0.55569275    -0.10800
C965        C  0.22128435  0.10767028  0.54192109    -0.29600
N966        N  0.22184404  0.10724777  0.45224447    -0.46200
C967        C  0.22574132  0.08523245  0.43828624    -0.05500
C968        C  0.23079945  0.06268090  0.45242946    -0.22900
H969        H  0.23635516  0.03596346  0.49786509     0.18900
H970        H  0.21670710  0.13505547  0.49610952     0.17700
H971        H  0.21658242  0.12759236  0.54834960     0.14000
H972        H  0.23421109  0.04235688  0.44635415     0.13900
H973        H  0.23319371  0.04327330  0.54681995     0.32000
H974        H  0.21734499  0.12665733  0.44643920     0.34800
C975        C  0.24849162  0.00192895  0.72651667     0.20400
C976        C  0.25858685  0.00175518  0.75033110    -0.39500
C977        C  0.25012522  0.98024977  0.76501606     0.19400
C978        C  0.23294914  0.96064237  0.75638934     0.22000
C979        C  0.22281593  0.96092323  0.73287006    -0.40000
C980        C  0.23116852  0.98221053  0.71839155     0.20800
N981        N  0.25086844  0.02147282  0.70980236    -0.33300
C982        C  0.23466207  0.01405361  0.69125347    -0.10800
C983        C  0.22214791  0.98973774  0.69602702    -0.29600
N984        N  0.22490042  0.94450124  0.77420971    -0.46200
C985        C  0.23658602  0.95369966  0.79461573    -0.05500
C986        C  0.25292731  0.97583217  0.78965992    -0.22900
H987        H  0.27089958  0.01787932  0.75726868     0.18900
H988        H  0.20818896  0.94640350  0.72671612     0.17700
H989        H  0.20678932  0.97998171  0.68533960     0.14000
H990        H  0.26298592  0.98862363  0.80258048     0.13900
H991        H  0.26095863  0.03970192  0.71173150     0.32000
H992        H  0.21041260  0.92942984  0.77293748     0.34800
C993        C  0.16674752  0.15207284  0.77468613     0.20400
C994        C  0.18413324  0.13341493  0.76410299    -0.39500
C995        C  0.18589686  0.13451700  0.73888851     0.19400
C996        C  0.17198558  0.15328999  0.72532484     0.22000
C997        C  0.15440811  0.17169412  0.73588864    -0.40000
C998        C  0.15208865  0.17011629  0.76097185     0.20800
N999        N  0.15893952  0.15284510  0.79782265    -0.33300
C1000       C  0.13869843  0.17089071  0.79855116    -0.10800
C1001       C  0.13391947  0.18218670  0.77602459    -0.29600
N1002       N  0.17451937  0.14825826  0.70168724    -0.46200
C1003       C  0.18931356  0.12562274  0.70018146    -0.05500
C1004       C  0.19709090  0.11659714  0.72295701    -0.22900
H1005       H  0.19409332  0.11801292  0.77456231     0.18900
H1006       H  0.14204478  0.18501692  0.72519235     0.17700
H1007       H  0.11811736  0.19601887  0.77107042     0.14000
H1008       H  0.20749982  0.09817211  0.72730439     0.13900
H1009       H  0.16534129  0.14029706  0.81178360     0.32000
H1010       H  0.16451353  0.15796045  0.68759684     0.34800
C1011       C  0.82344988  0.84544641  0.25773539     0.20400
C1012       C  0.82223450  0.84588664  0.23247945    -0.39500
C1013       C  0.84048692  0.82909154  0.22067289     0.19400
C1014       C  0.85875143  0.81335151  0.23313849     0.22000
C1015       C  0.85936617  0.81226167  0.25832565    -0.40000
C1016       C  0.84093186  0.82874133  0.27010175     0.20800
N1017       N  0.81178472  0.86280026  0.27293410    -0.33300
C1018       C  0.82188039  0.85683516  0.29497678    -0.10800
C1019       C  0.83955351  0.83535617  0.29405485    -0.29600
N1020       N  0.87682391  0.80277608  0.21806265    -0.46200
C1021       C  0.86986910  0.81162140  0.19586053    -0.05500
C1022       C  0.84704054  0.82766404  0.19662350    -0.22900
H1023       H  0.80942407  0.85969672  0.22275525     0.18900
H1024       H  0.87440047  0.80090376  0.26804956     0.17700
H1025       H  0.85208845  0.82781455  0.30851097     0.14000
H1026       H  0.83813927  0.83886776  0.18192381     0.13900
H1027       H  0.79934426  0.87888691  0.26840499     0.32000
H1028       H  0.89374584  0.79155477  0.22272310     0.34800
C1029       C  0.76152791  0.98041979  0.26526215     0.20400
C1030       C  0.75797048  0.97986690  0.24006177    -0.39500
C1031       C  0.76561131  0.00321339  0.22757122     0.19400
C1032       C  0.77629090  0.02524194  0.23933761     0.22000
C1033       C  0.77969946  0.02586478  0.26441898    -0.40000
C1034       C  0.77184531  0.00272161  0.27687087     0.20800
N1035       N  0.75972610  0.95960184  0.28070310    -0.33300
C1036       C  0.76909952  0.96871716  0.30218238    -0.10800
C1037       C  0.77658448  0.99556621  0.30044824    -0.29600
N1038       N  0.78493062  0.04358688  0.22343707    -0.46200
C1039       C  0.77967868  0.03337771  0.20129468    -0.05500
C1040       C  0.76733865  0.00830959  0.20309339    -0.22900
H1041       H  0.75114794  0.96206387  0.23074135     0.18900
H1042       H  0.78925234  0.04257708  0.27344658     0.17700
H1043       H  0.78723514  0.00723735  0.31385864     0.14000
H1044       H  0.76223014  0.99482261  0.18851158     0.13900
H1045       H  0.75534214  0.93972929  0.27626736     0.32000
H1046       H  0.79499389  0.06142662  0.22739860     0.34800
C1047       C  0.78920192  0.89133603  0.51855052     0.20400
C1048       C  0.79231069  0.87543220  0.49790219    -0.39500
C1049       C  0.79141078  0.88916946  0.47586637     0.19400
C1050       C  0.78770315  0.91663767  0.47456450     0.22000
C1051       C  0.78478554  0.93256622  0.49520176    -0.40000
C1052       C  0.78564768  0.91882363  0.51721799     0.20800
N1053       N  0.78902887  0.88307353  0.54158131    -0.33300
C1054       C  0.78535687  0.90546008  0.55498136    -0.10800
C1055       C  0.78321469  0.92817802  0.54044834    -0.29600
N1056       N  0.78696493  0.92480438  0.45153934    -0.46200
C1057       C  0.79021313  0.90240580  0.43806782    -0.05500
C1058       C  0.79321749  0.87976013  0.45257077    -0.22900
H1059       H  0.79501323  0.85393667  0.49891797     0.18900
H1060       H  0.78183437  0.95403072  0.49417543     0.17700
H1061       H  0.78030545  0.94872158  0.54613040     0.14000
H1062       H  0.79596652  0.85921462  0.44683753     0.13900
H1063       H  0.79137980  0.86344620  0.54780809     0.32000
H1064       H  0.78429583  0.94441079  0.44535641     0.34800
C1065       C  0.85620049  0.81037462  0.75738837     0.20400
C1066       C  0.85686554  0.80944395  0.73217398    -0.39500
C1067       C  0.83648157  0.82358149  0.72033755     0.19400
C1068       C  0.81714769  0.83793945  0.73273271     0.22000
C1069       C  0.81603597  0.83820849  0.75796612    -0.40000
C1070       C  0.83622342  0.82376710  0.76979996     0.20800
N1071       N  0.87532549  0.80182995  0.77258464    -0.33300
C1072       C  0.86730567  0.80960255  0.79478170    -0.10800
C1073       C  0.84282310  0.82294827  0.79389396    -0.29600
N1074       N  0.80353916  0.85399830  0.71764731    -0.46200
C1075       C  0.81419018  0.84963856  0.69560361    -0.05500
C1076       C  0.83431936  0.83039042  0.69640710    -0.22900
H1077       H  0.87314766  0.80004035  0.72249483     0.18900
H1078       H  0.80169899  0.85035516  0.76766450     0.17700
H1079       H  0.83251135  0.83272136  0.80860224     0.14000
H1080       H  0.84794490  0.82499457  0.68205739     0.13900
H1081       H  0.89333662  0.79245382  0.76804817     0.32000
H1082       H  0.78966379  0.86876545  0.72234352     0.34800
C1083       C  0.75772688  0.99210494  0.77094755     0.20400
C1084       C  0.75670548  0.96723574  0.75917146    -0.39500
C1085       C  0.75709567  0.96815100  0.73389816     0.19400
C1086       C  0.75861168  0.99204396  0.72125867     0.22000
C1087       C  0.75995602  0.01691802  0.73304149    -0.40000
C1088       C  0.75934817  0.01600334  0.75832752     0.20800
N1089       N  0.76056849  0.99638545  0.79475070    -0.33300
C1090       C  0.76400056  0.02315639  0.79732232    -0.10800
C1091       C  0.76346794  0.03604875  0.77502000    -0.29600
N1092       N  0.76218688  0.98735267  0.69761913    -0.46200
C1093       C  0.76305173  0.96034167  0.69521586    -0.05500
C1094       C  0.75991555  0.94770042  0.71742188    -0.22900
H1095       H  0.75695924  0.94848023  0.76898773     0.18900
H1096       H  0.76264430  0.03551270  0.72327764     0.17700
H1097       H  0.76796216  0.05689165  0.77138395     0.14000
H1098       H  0.76222225  0.92655266  0.72128864     0.13900
H1099       H  0.76236988  0.98182431  0.80819977     0.32000
H1100       H  0.76634259  0.00157221  0.68431145     0.34800
C1101       C  0.01495440  0.75621678  0.26583622     0.20400
C1102       C  0.99019549  0.75034963  0.25481890    -0.39500
C1103       C  0.98978133  0.75125080  0.22946893     0.19400
C1104       C  0.01235225  0.75755076  0.21616993     0.22000
C1105       C  0.03696424  0.76370052  0.22717378    -0.40000
C1106       C  0.03733870  0.76287808  0.25243180     0.20800
N1107       N  0.02005418  0.75892676  0.28957809    -0.33300
C1108       C  0.04570689  0.76780418  0.29119461    -0.10800
C1109       C  0.05711484  0.77045161  0.26841007    -0.29600
N1110       N  0.00601126  0.76075765  0.19279450    -0.46200
C1111       C  0.97922361  0.75668489  0.19102592    -0.05500
C1112       C  0.96840448  0.75056070  0.21354258    -0.22900
H1113       H  0.97226371  0.74668073  0.26523989     0.18900
H1114       H  0.05420420  0.77006743  0.21684883     0.17700
H1115       H  0.07680216  0.77818116  0.26409545     0.14000
H1116       H  0.94737384  0.74916336  0.21810567     0.13900
H1117       H  0.00645556  0.75654684  0.30369531     0.32000
H1118       H  0.01859358  0.76811380  0.17929982     0.34800
C1119       C  0.18212588  0.83254519  0.22755263     0.20400
C1120       C  0.17313467  0.80970657  0.23995400    -0.39500
C1121       C  0.17110110  0.81236180  0.26509849     0.19400
C1122       C  0.17751376  0.83602167  0.27684253     0.22000
C1123       C  0.18625642  0.85880534  0.26448235    -0.40000
C1124       C  0.18825941  0.85613098  0.23951048     0.20800
N1125       N  0.18359543  0.83606051  0.20353251    -0.33300
C1126       C  0.19030524  0.86216041  0.20045374    -0.10800
C1127       C  0.19352179  0.87520655  0.22242975    -0.29600
N1128       N  0.17003384  0.83499799  0.29995914    -0.46200
C1129       C  0.15849316  0.81072805  0.30308307    -0.05500
C1130       C  0.15906088  0.79582451  0.28183714    -0.22900
H1131       H  0.16682320  0.79172566  0.23062024     0.18900
H1132       H  0.18978336  0.87771266  0.27352309     0.17700
H1133       H  0.19790978  0.89619935  0.22544689     0.14000
H1134       H  0.14870738  0.77716633  0.27826818     0.13900
H1135       H  0.17892994  0.82209285  0.19014213     0.32000
H1136       H  0.16983702  0.85099732  0.31211100     0.34800
C1137       C  0.92473920  0.85641811  0.38144804     0.20400
C1138       C  0.94153732  0.83571084  0.38992979    -0.39500
C1139       C  0.96823557  0.83639259  0.38175385     0.19400
C1140       C  0.97726956  0.85618750  0.36628629     0.22000
C1141       C  0.96060443  0.87676771  0.35786866    -0.40000
C1142       C  0.93410613  0.87609323  0.36602379     0.20800
N1143       N  0.89809997  0.85911828  0.38478355    -0.33300
C1144       C  0.89058232  0.88047387  0.37114322    -0.10800
C1145       C  0.91257403  0.89164004  0.35939257    -0.29600
N1146       N  0.00255605  0.85138540  0.35949124    -0.46200
C1147       C  0.00993439  0.82829233  0.37051980    -0.05500
C1148       C  0.98914728  0.81839193  0.38483556    -0.22900
H1149       H  0.93413511  0.81973841  0.40131624     0.18900
H1150       H  0.96751901  0.89165399  0.34511565     0.17700
H1151       H  0.91251361  0.90796402  0.34652532     0.14000
H1152       H  0.98882184  0.79980228  0.39489292     0.13900
H1153       H  0.88558437  0.84628863  0.39448648     0.32000
H1154       H  0.01374652  0.86257638  0.34717858     0.34800
C1155       C  0.14818200  0.96239124  0.38240054     0.20400
C1156       C  0.12497166  0.94676488  0.37999835    -0.39500
C1157       C  0.12881779  0.91899040  0.38089761     0.19400
C1158       C  0.15389306  0.90761062  0.38403710     0.22000
C1159       C  0.17716073  0.92325880  0.38635058    -0.40000
C1160       C  0.17332367  0.95109608  0.38539184     0.20800
N1161       N  0.15012316  0.98895954  0.37923790    -0.33300
C1162       C  0.17667924  0.99466099  0.37978295    -0.10800
C1163       C  0.19181090  0.97161873  0.38400355    -0.29600
N1164       N  0.15248783  0.88082452  0.38198731    -0.46200
C1165       C  0.12641400  0.87519582  0.37721188    -0.05500
C1166       C  0.11099812  0.89846411  0.37659262    -0.22900
H1167       H  0.10552597  0.95557128  0.37646086     0.18900
H1168       H  0.19691494  0.91439522  0.38759363     0.17700
H1169       H  0.21342319  0.96977720  0.38382400     0.14000
H1170       H  0.08997296  0.90024971  0.37199169     0.13900
H1171       H  0.13446393  0.00207410  0.37503539     0.32000
H1172       H  0.16853713  0.86738216  0.38223975     0.34800
C1173       C  0.95825679  0.82890275  0.60984429     0.20400
C1174       C  0.93081925  0.82448771  0.60526417    -0.39500
C1175       C  0.91366885  0.84630249  0.60995530     0.19400
C1176       C  0.92316873  0.87038649  0.61897500     0.22000
C1177       C  0.95048689  0.87493936  0.62308904    -0.40000
C1178       C  0.96755460  0.85342580  0.61800562     0.20800
N1179       N  0.97833618  0.81076331  0.60943631    -0.33300
C1180       C  0.00043226  0.82405092  0.61735172    -0.10800
C1181       C  0.99446643  0.85074810  0.62243533    -0.29600
N1182       N  0.90284515  0.88684012  0.62461198    -0.46200
C1183       C  0.88011330  0.87345856  0.61883067    -0.05500
C1184       C  0.88600057  0.84817300  0.60937430    -0.22900
H1185       H  0.92325719  0.80520221  0.59945759     0.18900
H1186       H  0.95782134  0.89352112  0.63072124     0.17700
H1187       H  0.00763728  0.86565266  0.63028137     0.14000
H1188       H  0.87191764  0.83257615  0.60448875     0.13900
H1189       H  0.97678168  0.79036952  0.60542596     0.32000
H1190       H  0.90429446  0.90564248  0.63279535     0.34800
C1191       C  0.13899837  0.96326658  0.61270928     0.20400
C1192       C  0.11591434  0.94817054  0.61773500    -0.39500
C1193       C  0.11812285  0.92041166  0.61428491     0.19400
C1194       C  0.14137651  0.90861261  0.60584782     0.22000
C1195       C  0.16453333  0.92373264  0.60089858    -0.40000
C1196       C  0.16251840  0.95148526  0.60487176     0.20800
N1197       N  0.14296235  0.98930431  0.61768408    -0.33300
C1198       C  0.16930495  0.99418679  0.61355819    -0.10800
C1199       C  0.18213529  0.97111699  0.60523182    -0.29600
N1200       N  0.13917182  0.88172865  0.60624957    -0.46200
C1201       C  0.11463499  0.87636313  0.61555009    -0.05500
C1202       C  0.10086537  0.89999757  0.62067954    -0.22900
H1203       H  0.09807482  0.95720281  0.62523988     0.18900
H1204       H  0.18321715  0.91437188  0.59573799     0.17700
H1205       H  0.20332136  0.96851149  0.60183537     0.14000
H1206       H  0.08153324  0.90194401  0.62929859     0.13900
H1207       H  0.12904496  0.00242517  0.62529701     0.32000
H1208       H  0.15419062  0.86786899  0.60221975     0.34800
C1209       C  0.10269572  0.78289845  0.51814656     0.20400
C1210       C  0.11701941  0.79124228  0.49781715    -0.39500
C1211       C  0.10538132  0.78489076  0.47555185     0.19400
C1212       C  0.08136561  0.77113382  0.47359395     0.22000
C1213       C  0.06678157  0.76314100  0.49399340    -0.40000
C1214       C  0.07837123  0.76965830  0.51634214     0.20800
N1215       N  0.10965033  0.78641906  0.54130059    -0.33300
C1216       C  0.08947274  0.77568459  0.55440513    -0.10800
C1217       C  0.06952891  0.76506120  0.53951600    -0.29600
N1218       N  0.07504926  0.76696240  0.45029812    -0.46200
C1219       C  0.09516726  0.77830575  0.43746031    -0.05500
C1220       C  0.11432536  0.78981067  0.45258534    -0.22900
H1221       H  0.13592402  0.80178500  0.49923402     0.18900
H1222       H  0.04790320  0.75255781  0.49257631     0.17700
H1223       H  0.05110735  0.75534249  0.54492893     0.14000
H1224       H  0.13250543  0.80015499  0.44743747     0.13900
H1225       H  0.12685321  0.79596594  0.54780393     0.32000
H1226       H  0.05814549  0.75709770  0.44355936     0.34800
C1227       C  0.98818416  0.74617120  0.76421445     0.20400
C1228       C  0.98677271  0.73910310  0.73965046    -0.39500
C1229       C  0.00920531  0.74599258  0.72558704     0.19400
C1230       C  0.03116926  0.75906359  0.73538606     0.22000
C1231       C  0.03260069  0.76604555  0.75978402    -0.40000
C1232       C  0.01036195  0.75913680  0.77373706     0.20800
N1233       N  0.96823455  0.74538484  0.78054018    -0.33300
C1234       C  0.97784265  0.75824107  0.80030511    -0.10800
C1235       C  0.00403465  0.76687459  0.79676617    -0.29600
N1236       N  0.04818060  0.76672924  0.71806302    -0.46200
C1237       C  0.03729763  0.75848178  0.69696318    -0.05500
C1238       C  0.01298590  0.74527192  0.70083651    -0.22900
H1239       H  0.96892092  0.73035065  0.73179456     0.18900
H1240       H  0.04913444  0.77758404  0.76704994     0.17700
H1241       H  0.01585402  0.77947964  0.80860845     0.14000
H1242       H  0.99880739  0.73856949  0.68731963     0.13900
H1243       H  0.94856656  0.73894640  0.77762264     0.32000
H1244       H  0.06520431  0.77868974  0.72025401     0.34800
C1245       C  0.18465340  0.84340462  0.75940007     0.20400
C1246       C  0.18524540  0.84580173  0.73423239    -0.39500
C1247       C  0.16752300  0.82912848  0.72162696     0.19400
C1248       C  0.15022509  0.81174022  0.73330764     0.22000
C1249       C  0.14997071  0.80900423  0.75843861    -0.40000
C1250       C  0.16797198  0.82537680  0.77103384     0.20800
N1251       N  0.19631618  0.85986061  0.77536578    -0.33300
C1252       C  0.18701971  0.85225266  0.79722576    -0.10800
C1253       C  0.16974861  0.83045209  0.79538301    -0.29600
N1254       N  0.13266214  0.80113407  0.71767780    -0.46200
C1255       C  0.13900088  0.81162980  0.69593782    -0.05500
C1256       C  0.16085035  0.82888615  0.69752208    -0.22900
H1257       H  0.19737559  0.86073783  0.72523509     0.18900
H1258       H  0.13561618  0.79632551  0.76757746     0.17700
H1259       H  0.15760443  0.82180292  0.80953051     0.14000
H1260       H  0.16899174  0.84145332  0.68341527     0.13900
H1261       H  0.20805961  0.87665176  0.77149177     0.32000
H1262       H  0.11642557  0.78871503  0.72172637     0.34800
C1263       C  0.86626786  0.17690368  0.25509625     0.20400
C1264       C  0.87084003  0.17516043  0.23031786    -0.39500
C1265       C  0.84918585  0.16640315  0.21640432     0.19400
C1266       C  0.82464728  0.15970793  0.22633523     0.22000
C1267       C  0.81994710  0.16177840  0.25130147    -0.40000
C1268       C  0.84176111  0.17070369  0.26532804     0.20800
N1269       N  0.88475309  0.18154491  0.27211239    -0.33300
C1270       C  0.87219986  0.17836160  0.29349512    -0.10800
C1271       C  0.84516483  0.17195662  0.29011069    -0.29600
N1272       N  0.80917350  0.14727757  0.20981572    -0.46200
C1273       C  0.82419345  0.14595481  0.18950102    -0.05500
C1274       C  0.84903126  0.15797491  0.19290143    -0.22900
H1275       H  0.89045912  0.17857706  0.22262120     0.18900
H1276       H  0.80133101  0.15524445  0.25936294     0.17700
H1277       H  0.83059736  0.16699866  0.30381917     0.14000
H1278       H  0.86602333  0.15724903  0.18082367     0.13900
H1279       H  0.90509278  0.18542529  0.26932648     0.32000
H1280       H  0.79103969  0.13743459  0.21298851     0.34800
C1281       C  0.99341652  0.23305659  0.26671598     0.20400
C1282       C  0.99307677  0.23910031  0.24192284    -0.39500
C1283       C  0.01614941  0.23172896  0.22899986     0.19400
C1284       C  0.03770284  0.21918566  0.24003590     0.22000
C1285       C  0.03806290  0.21322626  0.26465462    -0.40000
C1286       C  0.01519322  0.22061080  0.27748471     0.20800
N1287       N  0.97285746  0.23469896  0.28233453    -0.33300
C1288       C  0.98175234  0.22296802  0.30292218    -0.10800
C1289       C  0.00800853  0.21411757  0.30058739    -0.29600
N1290       N  0.05579045  0.21138312  0.22371244    -0.46200
C1291       C  0.04584113  0.21882841  0.20200556    -0.05500
C1292       C  0.02128002  0.23196627  0.20450247    -0.22900
H1293       H  0.97563713  0.24759258  0.23313525     0.18900
H1294       H  0.05436516  0.20223122  0.27295653     0.17700
H1295       H  0.01935630  0.20218328  0.31333963     0.14000
H1296       H  0.00805397  0.23876405  0.19025706     0.13900
H1297       H  0.95332616  0.24099782  0.27855003     0.32000
H1298       H  0.07319023  0.20030659  0.22703310     0.34800
C1299       C  0.03481444  0.12988098  0.38429483     0.20400
C1300       C  0.05040503  0.10700404  0.37987175    -0.39500
C1301       C  0.07814398  0.11011109  0.38288972     0.19400
C1302       C  0.08951326  0.13403766  0.39035817     0.22000
C1303       C  0.07388980  0.15697277  0.39473967    -0.40000
C1304       C  0.04613686  0.15403708  0.39119823     0.20800
N1305       N  0.00869361  0.13302076  0.37913995    -0.33300
C1306       C  0.00333359  0.15945209  0.38212308    -0.10800
C1307       C  0.02611790  0.17317794  0.39005223    -0.29600
N1308       N  0.11642437  0.13267648  0.38929104    -0.46200
C1309       C  0.12218252  0.10800393  0.38048382    -0.05500
C1310       C  0.09882460  0.09327369  0.37646508    -0.22900
H1311       H  0.04172752  0.08866373  0.37293648     0.18900
H1312       H  0.08286383  0.17615724  0.39898815     0.17700
H1313       H  0.02834138  0.19458887  0.39247066     0.14000
H1314       H  0.09715218  0.07365680  0.36826728     0.13900
H1315       H  0.99588055  0.11848807  0.37195352     0.32000
H1316       H  0.12992775  0.14832514  0.39234931     0.34800
C1317       C  0.86342160  0.02425949  0.38056867     0.20400
C1318       C  0.88662042  0.03975255  0.37762905    -0.39500
C1319       C  0.88311613  0.06754533  0.37913126     0.19400
C1320       C  0.85840976  0.07915334  0.38350522     0.22000
C1321       C  0.83507004  0.06361667  0.38621947    -0.40000
C1322       C  0.83855451  0.03570691  0.38456899     0.20800
N1323       N  0.86113982  0.99774656  0.37710818    -0.33300
C1324       C  0.83460745  0.99216560  0.37845145    -0.10800
C1325       C  0.81986727  0.01527504  0.38350521    -0.29600
N1326       N  0.86020235  0.10606227  0.38238870    -0.46200
C1327       C  0.88611837  0.11146248  0.37685698    -0.05500
C1328       C  0.90097823  0.08796479  0.37470383    -0.22900
H1329       H  0.90580073  0.03085019  0.37333761     0.18900
H1330       H  0.81549798  0.07262678  0.38839638     0.17700
H1331       H  0.79827729  0.01725500  0.38407860     0.14000
H1332       H  0.92174386  0.08607113  0.36937847     0.13900
H1333       H  0.87649614  0.98461044  0.37223167     0.32000
H1334       H  0.84447363  0.11979496  0.38368084     0.34800
C1335       C  0.09143759  0.13745205  0.60916406     0.20400
C1336       C  0.07586962  0.16080062  0.60639670    -0.39500
C1337       C  0.04808634  0.15761200  0.60962992     0.19400
C1338       C  0.03680867  0.13294163  0.61488398     0.22000
C1339       C  0.05229425  0.10972401  0.61767188    -0.40000
C1340       C  0.07995712  0.11298561  0.61484083     0.20800
N1341       N  0.11836435  0.13571258  0.60998865    -0.33300
C1342       C  0.12387182  0.11018354  0.61683751    -0.10800
C1343       C  0.10045599  0.09538633  0.61981035    -0.29600
N1344       N  0.01057046  0.13544353  0.61947911    -0.46200
C1345       C  0.00490450  0.16191473  0.61751297    -0.05500
C1346       C  0.02776971  0.17644595  0.61113283    -0.22900
H1347       H  0.08485984  0.18024077  0.60329997     0.18900
H1348       H  0.04356806  0.09079695  0.62309053     0.17700
H1349       H  0.09866462  0.07504448  0.62641920     0.14000
H1350       H  0.02965905  0.19797912  0.60948554     0.13900
H1351       H  0.13204087  0.15141851  0.60804879     0.32000
H1352       H  0.99763605  0.12021616  0.62510662     0.34800
C1353       C  0.86453459  0.07459769  0.60746048     0.20400
C1354       C  0.84117327  0.05948134  0.60327583    -0.39500
C1355       C  0.84239515  0.03239376  0.61015935     0.19400
C1356       C  0.86526181  0.02123316  0.62018057     0.22000
C1357       C  0.88852870  0.03627630  0.62435873    -0.40000
C1358       C  0.88720555  0.06334151  0.61777576     0.20800
N1359       N  0.86728981  0.10136250  0.60566305    -0.33300
C1360       C  0.89156045  0.10714315  0.61547317    -0.10800
C1361       C  0.90468109  0.08390626  0.62288926    -0.29600
N1362       N  0.86081733  0.99577492  0.62686010    -0.46200
C1363       C  0.83487984  0.99060417  0.62125536    -0.05500
C1364       C  0.82268828  0.01293832  0.61072656    -0.22900
H1365       H  0.82296048  0.06847016  0.59636692     0.18900
H1366       H  0.90589682  0.02786094  0.63332568     0.17700
H1367       H  0.92338416  0.08251969  0.63275778     0.14000
H1368       H  0.80196448  0.01500157  0.60520767     0.13900
H1369       H  0.85255903  0.11504051  0.60034860     0.32000
H1370       H  0.87430095  0.98305397  0.63566503     0.34800
C1371       C  0.92724076  0.21651627  0.51869673     0.20400
C1372       C  0.94268803  0.21932743  0.49778598    -0.39500
C1373       C  0.92863948  0.21704230  0.47596075     0.19400
C1374       C  0.90127114  0.21250675  0.47497319     0.22000
C1375       C  0.88580167  0.20985042  0.49590775    -0.40000
C1376       C  0.89988241  0.21192032  0.51776144     0.20800
N1377       N  0.93604887  0.21641155  0.54160118    -0.33300
C1378       C  0.91417279  0.21151320  0.55533449    -0.10800
C1379       C  0.89121488  0.20876460  0.54113414    -0.29600
N1380       N  0.89290968  0.21006443  0.45200489    -0.46200
C1381       C  0.91517210  0.21297638  0.43834552    -0.05500
C1382       C  0.93780234  0.21744417  0.45263703    -0.22900
H1383       H  0.96415640  0.22239568  0.49845307     0.18900
H1384       H  0.86450175  0.20579398  0.49523260     0.17700
H1385       H  0.87105106  0.20435826  0.54708557     0.14000
H1386       H  0.95830210  0.22005126  0.44674204     0.13900
H1387       H  0.95580930  0.21886566  0.54748660     0.32000
H1388       H  0.87342222  0.20616379  0.44602512     0.34800
C1389       C  0.02051138  0.23576573  0.76340247     0.20400
C1390       C  0.02258661  0.24028833  0.73841495    -0.39500
C1391       C  0.99905746  0.23599715  0.72487325     0.19400
C1392       C  0.97540256  0.22766619  0.73550702     0.22000
C1393       C  0.97333951  0.22317870  0.76035718    -0.40000
C1394       C  0.99669649  0.22756930  0.77382676     0.20800
N1395       N  0.04062047  0.23483091  0.77967004    -0.33300
C1396       C  0.02941311  0.22586092  0.80041643    -0.10800
C1397       C  0.00211777  0.22122675  0.79745738    -0.29600
N1398       N  0.95703989  0.22144009  0.71870084    -0.46200
C1399       C  0.96882123  0.22589559  0.69713491    -0.05500
C1400       C  0.99505398  0.23509122  0.70017524    -0.22900
H1401       H  0.04147435  0.24525839  0.72997508     0.18900
H1402       H  0.95526866  0.21525035  0.76842452     0.17700
H1403       H  0.98864589  0.21191802  0.81023102     0.14000
H1404       H  0.00995280  0.23803843  0.68628849     0.13900
H1405       H  0.06101552  0.23768113  0.77632357     0.32000
H1406       H  0.93833416  0.21263204  0.72165033     0.34800
C1407       C  0.85495235  0.16946569  0.73357346     0.20400
C1408       C  0.85543711  0.17130595  0.75875488    -0.39500
C1409       C  0.83603200  0.15619973  0.77081049     0.19400
C1410       C  0.81790052  0.14001600  0.75865959     0.22000
C1411       C  0.81702155  0.13866760  0.73342712    -0.40000
C1412       C  0.83612066  0.15420085  0.72134122     0.20800
N1413       N  0.87329359  0.17916218  0.71830283    -0.33300
C1414       C  0.86593408  0.17030690  0.69619841    -0.10800
C1415       C  0.84262172  0.15499830  0.69722431    -0.29600
N1416       N  0.80496524  0.12399257  0.77415235    -0.46200
C1417       C  0.81479696  0.13022527  0.79621090    -0.05500
C1418       C  0.83378072  0.15058131  0.79498043    -0.22900
H1419       H  0.87083287  0.18236550  0.76829512     0.18900
H1420       H  0.80357231  0.12524674  0.72396885     0.17700
H1421       H  0.83316414  0.14404433  0.68266424     0.14000
H1422       H  0.84661149  0.15772740  0.80938528     0.13900
H1423       H  0.89051185  0.19002387  0.72276894     0.32000
H1424       H  0.79198407  0.10826004  0.76983452     0.34800
C1425       C  0.36054124  0.16904988  0.62951625     0.20400
C1426       C  0.35009702  0.14552796  0.61899333    -0.39500
C1427       C  0.32655298  0.13526753  0.62950794     0.19400
C1428       C  0.31424882  0.14786327  0.64874212     0.22000
C1429       C  0.32457158  0.17130031  0.65915243    -0.40000
C1430       C  0.34818714  0.18125821  0.64892084     0.20800
N1431       N  0.38097642  0.18430225  0.62146263    -0.33300
C1432       C  0.38159361  0.20621420  0.63594779    -0.10800
C1433       C  0.36141457  0.20498717  0.65319304    -0.29600
N1434       N  0.29070822  0.13618315  0.65379093    -0.46200
C1435       C  0.28775367  0.11587981  0.63779782    -0.05500
C1436       C  0.30988796  0.11441916  0.62245332    -0.22900
H1437       H  0.35901806  0.13650863  0.60320357     0.18900
H1438       H  0.31429475  0.18169467  0.67353364     0.17700
H1439       H  0.35566712  0.22057669  0.66572247     0.14000
H1440       H  0.31228580  0.10151424  0.60693742     0.13900
H1441       H  0.39232516  0.18111997  0.60593951     0.32000
H1442       H  0.27667512  0.14266851  0.66644905     0.34800
C1443       C  0.36012761  0.17550464  0.35480758     0.20400
C1444       C  0.35193869  0.15016825  0.36359998    -0.39500
C1445       C  0.32587982  0.14174380  0.35685812     0.19400
C1446       C  0.30947820  0.15751838  0.34253896     0.22000
C1447       C  0.31767928  0.18242613  0.33363021    -0.40000
C1448       C  0.34343865  0.19071170  0.34027336     0.20800
N1449       N  0.38217757  0.18982844  0.36102942    -0.33300
C1450       C  0.37900600  0.21433055  0.35058808    -0.10800
C1451       C  0.35531862  0.21524748  0.33723402    -0.29600
N1452       N  0.28486151  0.14690791  0.34069629    -0.46200
C1453       C  0.28510428  0.12404039  0.35384891    -0.05500
C1454       C  0.31052468  0.11986604  0.36404736    -0.22900
H1455       H  0.36432830  0.13854839  0.37577088     0.18900
H1456       H  0.30432764  0.19517745  0.32333337     0.17700
H1457       H  0.34669727  0.23251876  0.32827722     0.14000
H1458       H  0.31637272  0.10408655  0.37637789     0.13900
H1459       H  0.39714028  0.18415142  0.37320986     0.32000
H1460       H  0.26840534  0.15544627  0.33188283     0.34800
C1461       C  0.42741116  0.26713401  0.51605364     0.20400
C1462       C  0.44278807  0.26209974  0.49538947    -0.39500
C1463       C  0.43029227  0.26796320  0.47328385     0.19400
C1464       C  0.40441654  0.27788984  0.47190585     0.22000
C1465       C  0.38918133  0.28320744  0.49251906    -0.40000
C1466       C  0.40172959  0.27753696  0.51455998     0.20800
N1467       N  0.43480245  0.26380756  0.53922221    -0.33300
C1468       C  0.41376302  0.27255344  0.55245137    -0.10800
C1469       C  0.39279223  0.28119370  0.53770386    -0.29600
N1470       N  0.39706835  0.28175433  0.44886955    -0.46200
C1471       C  0.41847145  0.27444713  0.43543326    -0.05500
C1472       C  0.43962980  0.26578454  0.45000035    -0.22900
H1473       H  0.46302729  0.25438089  0.49644412     0.18900
H1474       H  0.36910973  0.29136640  0.49147970     0.17700
H1475       H  0.37370673  0.28943620  0.54322323     0.14000
H1476       H  0.45918696  0.25892132  0.44431252     0.13900
H1477       H  0.45320990  0.25676484  0.54562708     0.32000
H1478       H  0.37873912  0.28923204  0.44267687     0.34800
C1479       C  0.19919379  0.65525200  0.64466152     0.20400
C1480       C  0.19015194  0.67921114  0.65496783    -0.39500
C1481       C  0.16537486  0.68868398  0.64664248     0.19400
C1482       C  0.15047514  0.67546198  0.62925165     0.22000
C1483       C  0.15950672  0.65118998  0.61897967    -0.40000
C1484       C  0.18443489  0.64152290  0.62747724     0.20800
N1485       N  0.22329024  0.64381690  0.64795640    -0.33300
C1486       C  0.22419283  0.62246730  0.63290508    -0.10800
C1487       C  0.20012585  0.62009094  0.62001372    -0.29600
N1488       N  0.12892845  0.69033610  0.62277903    -0.46200
C1489       C  0.13048711  0.71320335  0.63605738    -0.05500
C1490       C  0.15281765  0.71262389  0.65121750    -0.22900
H1491       H  0.20216459  0.69036464  0.66778434     0.18900
H1492       H  0.14850921  0.64116739  0.60475684     0.17700
H1493       H  0.19553691  0.60584930  0.60588620     0.14000
H1494       H  0.15998643  0.72855230  0.66281473     0.13900
H1495       H  0.23872556  0.65082513  0.65906166     0.32000
H1496       H  0.11523534  0.68612213  0.60901271     0.34800
C1497       C  0.35429662  0.40370452  0.60747495     0.20400
C1498       C  0.33065416  0.41898037  0.60705630    -0.39500
C1499       C  0.33413091  0.44685845  0.60823245     0.19400
C1500       C  0.35926951  0.45849898  0.60982856     0.22000
C1501       C  0.38285113  0.44324762  0.61035299    -0.40000
C1502       C  0.37938531  0.41544099  0.60911089     0.20800
N1503       N  0.35628501  0.37691667  0.60891494    -0.33300
C1504       C  0.38275212  0.37161791  0.61183826    -0.10800
C1505       C  0.39783508  0.39512806  0.61178795    -0.29600
N1506       N  0.35721991  0.48504526  0.61301229    -0.46200
C1507       C  0.33062538  0.49045302  0.61360516    -0.05500
C1508       C  0.31550855  0.46717056  0.61043625    -0.22900
H1509       H  0.31099749  0.40979593  0.60683736     0.18900
H1510       H  0.40240147  0.45233089  0.61262551     0.17700
H1511       H  0.41912746  0.39718502  0.61511352     0.14000
H1512       H  0.29394105  0.46512849  0.61141090     0.13900
H1513       H  0.34045323  0.36323376  0.60967060     0.32000
H1514       H  0.37297056  0.49845827  0.61599362     0.34800
C1515       C  0.19377047  0.64992025  0.34217699     0.20400
C1516       C  0.18426729  0.67374021  0.33186457    -0.39500
C1517       C  0.16047571  0.68388495  0.34152584     0.19400
C1518       C  0.14710878  0.67144868  0.36027997     0.22000
C1519       C  0.15666655  0.64743905  0.37064660    -0.40000
C1520       C  0.18048087  0.63703251  0.36073270     0.20800
N1521       N  0.21740016  0.63814218  0.33779063    -0.33300
C1522       C  0.21947303  0.61745383  0.35350175    -0.10800
C1523       C  0.19663134  0.61582959  0.36800005    -0.29600
N1524       N  0.12683046  0.68704471  0.36810562    -0.46200
C1525       C  0.12744624  0.70941657  0.35416938    -0.05500
C1526       C  0.14811270  0.70808693  0.33743528    -0.22900
H1527       H  0.19534894  0.68434309  0.31808627     0.18900
H1528       H  0.14698044  0.63823149  0.38599003     0.17700
H1529       H  0.19341326  0.60256966  0.38316316     0.14000
H1530       H  0.15474918  0.72386248  0.32543895     0.13900
H1531       H  0.23204059  0.64478014  0.32575456     0.32000
H1532       H  0.11484774  0.68375311  0.38322358     0.34800
C1533       C  0.36601258  0.40958246  0.38444402     0.20400
C1534       C  0.34273711  0.42463270  0.38904550    -0.39500
C1535       C  0.34411238  0.45202936  0.38323478     0.19400
C1536       C  0.36714414  0.46353619  0.37398981     0.22000
C1537       C  0.39028421  0.44853465  0.36926526    -0.40000
C1538       C  0.38872802  0.42115221  0.37462723     0.20800
N1539       N  0.36861496  0.38274457  0.38534364    -0.33300
C1540       C  0.39279091  0.37724095  0.37539783    -0.10800
C1541       C  0.40601901  0.40070379  0.36876495    -0.29600
N1542       N  0.36273749  0.48915461  0.36785468    -0.46200
C1543       C  0.33657753  0.49403780  0.37267827    -0.05500
C1544       C  0.32428397  0.47142007  0.38255037    -0.22900
H1545       H  0.32442105  0.41538793  0.39533626     0.18900
H1546       H  0.40766868  0.45725621  0.36065844     0.17700
H1547       H  0.42476193  0.40240336  0.35910684     0.14000
H1548       H  0.30335870  0.46898762  0.38713678     0.13900
H1549       H  0.35388350  0.36892697  0.39028166     0.32000
H1550       H  0.37628940  0.50201709  0.35937274     0.34800
C1551       C  0.28592608  0.59264777  0.47134807     0.20400
C1552       C  0.28975058  0.60816819  0.49214181    -0.39500
C1553       C  0.28768132  0.59438222  0.51407166     0.19400
C1554       C  0.28216465  0.56721356  0.51520129     0.22000
C1555       C  0.27846008  0.55163824  0.49438704    -0.40000
C1556       C  0.28057613  0.56543833  0.47243875     0.20800
N1557       N  0.28738416  0.60094259  0.44836792    -0.33300
C1558       C  0.28309308  0.57883769  0.43471537    -0.10800
C1559       C  0.27868628  0.55629817  0.44906179    -0.29600
N1560       N  0.28135378  0.55888879  0.53821679    -0.46200
C1561       C  0.28649992  0.58090347  0.55180948    -0.05500
C1562       C  0.29055160  0.60342315  0.53739394    -0.22900
H1563       H  0.29417922  0.62938637  0.49129991     0.18900
H1564       H  0.27440128  0.53034433  0.49521842     0.17700
H1565       H  0.27507488  0.53593223  0.44316925     0.14000
H1566       H  0.29506191  0.62363677  0.54320465     0.13900
H1567       H  0.29153641  0.62034359  0.44234353     0.32000
H1568       H  0.27770339  0.53940829  0.54429894     0.34800
C1569       C  0.64306760  0.81653278  0.62659825     0.20400
C1570       C  0.65370502  0.83951533  0.61536870    -0.39500
C1571       C  0.67653527  0.85077206  0.62641104     0.19400
C1572       C  0.68787074  0.83972099  0.64695402     0.22000
C1573       C  0.67723155  0.81694388  0.65817847    -0.40000
C1574       C  0.65448064  0.80584560  0.64725774     0.20800
N1575       N  0.62376294  0.80012805  0.61807545    -0.33300
C1576       C  0.62305130  0.77898497  0.63345176    -0.10800
C1577       C  0.64186435  0.78188564  0.65182824    -0.29600
N1578       N  0.71138502  0.85146168  0.65203992    -0.46200
C1579       C  0.71534105  0.87012387  0.63468506    -0.05500
C1580       C  0.69379840  0.87068946  0.61852973    -0.22900
H1581       H  0.64573666  0.84713887  0.59854142     0.18900
H1582       H  0.68695416  0.80757086  0.67348542     0.17700
H1583       H  0.64726526  0.76720783  0.66538542     0.14000
H1584       H  0.69235978  0.88203259  0.60194077     0.13900
H1585       H  0.61333459  0.80205571  0.60180961     0.32000
H1586       H  0.72492592  0.84576313  0.66550773     0.34800
C1587       C  0.46745271  0.64873164  0.60937626     0.20400
C1588       C  0.44125467  0.65003626  0.59985120    -0.39500
C1589       C  0.42330482  0.63017039  0.60797469     0.19400
C1590       C  0.43094454  0.61073067  0.62442998     0.22000
C1591       C  0.45693356  0.60949451  0.63396507    -0.40000
C1592       C  0.47477274  0.62911281  0.62577150     0.20800
N1593       N  0.48777755  0.66622369  0.60604060    -0.33300
C1594       C  0.50790783  0.65764472  0.62067388    -0.10800
C1595       C  0.50052777  0.63446698  0.63301140    -0.29600
N1596       N  0.41000235  0.59536326  0.63066671    -0.46200
C1597       C  0.38863537  0.60491130  0.61820365    -0.05500
C1598       C  0.39615917  0.62657798  0.60368667    -0.22900
H1599       H  0.43509246  0.66576896  0.58759305     0.18900
H1600       H  0.46263559  0.59479127  0.64739236     0.17700
H1601       H  0.51198514  0.62381959  0.64657901     0.14000
H1602       H  0.38322769  0.63900055  0.59266957     0.13900
H1603       H  0.48743391  0.68365572  0.59560813     0.32000
H1604       H  0.41000389  0.58004200  0.64351581     0.34800
C1605       C  0.66661379  0.79554047  0.34355034     0.20400
C1606       C  0.69173848  0.80327060  0.33477465    -0.39500
C1607       C  0.70151076  0.82784142  0.34319198     0.19400
C1608       C  0.68736257  0.84378413  0.35910391     0.22000
C1609       C  0.66197486  0.83603925  0.36782815    -0.40000
C1610       C  0.65211623  0.81124675  0.35940066     0.20800
N1611       N  0.65472670  0.77172473  0.34034334    -0.33300
C1612       C  0.63244001  0.77188553  0.35422652    -0.10800
C1613       C  0.62982451  0.79640475  0.36619266    -0.29600
N1614       N  0.70245031  0.86487119  0.36618437    -0.46200
C1615       C  0.72640651  0.86192043  0.35491949    -0.05500
C1616       C  0.72636402  0.83921316  0.34029241    -0.22900
H1617       H  0.70348431  0.79037923  0.32320940     0.18900
H1618       H  0.65129900  0.84779343  0.38107322     0.17700
H1619       H  0.61500003  0.80173010  0.37955054     0.14000
H1620       H  0.74297771  0.83115686  0.33009514     0.13900
H1621       H  0.66221839  0.75564009  0.33036744     0.32000
H1622       H  0.69747421  0.87924431  0.37909370     0.34800
C1623       C  0.46129309  0.65532675  0.38055581     0.20400
C1624       C  0.43383274  0.65975927  0.38466768    -0.39500
C1625       C  0.41691062  0.63748351  0.38128012     0.19400
C1626       C  0.42660827  0.61279935  0.37398178     0.22000
C1627       C  0.45402563  0.60825572  0.37024301    -0.40000
C1628       C  0.47090119  0.63039166  0.37389367     0.20800
N1629       N  0.48107956  0.67376557  0.37999862    -0.33300
C1630       C  0.50336726  0.66039691  0.37287086    -0.10800
C1631       C  0.49779616  0.63326345  0.36925017    -0.29600
N1632       N  0.40632753  0.59587462  0.36909998    -0.46200
C1633       C  0.38349333  0.60968197  0.37358799    -0.05500
C1634       C  0.38926231  0.63562864  0.38147177    -0.22900
H1635       H  0.42606082  0.67938943  0.38909952     0.18900
H1636       H  0.46153757  0.58921479  0.36381160     0.17700
H1637       H  0.51120940  0.61806990  0.36233214     0.14000
H1638       H  0.37512588  0.65163123  0.38484070     0.13900
H1639       H  0.47919371  0.69436493  0.38287437     0.32000
H1640       H  0.40786561  0.57654790  0.36199898     0.34800
C1641       C  0.60423411  0.70200913  0.47259746     0.20400
C1642       C  0.61781128  0.69331965  0.49334331    -0.39500
C1643       C  0.60579551  0.70010603  0.51530189     0.19400
C1644       C  0.58218982  0.71462915  0.51651199     0.22000
C1645       C  0.56850585  0.72314941  0.49575367    -0.40000
C1646       C  0.58038923  0.71614227  0.47378007     0.20800
N1647       N  0.61136549  0.69789732  0.44958712    -0.33300
C1648       C  0.59176774  0.70922836  0.43604686    -0.10800
C1649       C  0.57206290  0.72077233  0.45045581    -0.29600
N1650       N  0.57507206  0.71871816  0.53954325    -0.46200
C1651       C  0.59420494  0.70655367  0.55304519    -0.05500
C1652       C  0.61366998  0.69467569  0.53858969    -0.22900
H1653       H  0.63630546  0.68203465  0.49245036     0.18900
H1654       H  0.54992522  0.73428939  0.49664525     0.17700
H1655       H  0.55408596  0.73108023  0.44463038     0.14000
H1656       H  0.63129465  0.68374364  0.54436845     0.13900
H1657       H  0.62823646  0.68758300  0.44345742     0.32000
H1658       H  0.55822710  0.72905445  0.54569668     0.34800
C1659       C  0.85586828  0.30878197  0.63464681     0.20400
C1660       C  0.84985894  0.33540393  0.62777000    -0.39500
C1661       C  0.82400282  0.34471926  0.63387913     0.19400
C1662       C  0.80579766  0.32853283  0.64580303     0.22000
C1663       C  0.81178924  0.30227336  0.65270515    -0.40000
C1664       C  0.83734119  0.29313027  0.64669857     0.20800
N1665       N  0.87782873  0.29411128  0.62916933    -0.33300
C1666       C  0.87280498  0.26904567  0.63770974    -0.10800
C1667       C  0.84787561  0.26791484  0.64886229    -0.29600
N1668       N  0.78180114  0.34038395  0.64719132    -0.46200
C1669       C  0.78429283  0.36444398  0.63620432    -0.05500
C1670       C  0.81045620  0.36814754  0.62777855    -0.22900
H1671       H  0.86376997  0.34750666  0.61752915     0.18900
H1672       H  0.79708479  0.28940112  0.66115754     0.17700
H1673       H  0.83804915  0.25045008  0.65634672     0.14000
H1674       H  0.81782831  0.38453032  0.61686086     0.13900
H1675       H  0.89439671  0.30029925  0.61914386     0.32000
H1676       H  0.76418692  0.33189707  0.65391226     0.34800
C1677       C  0.64502409  0.52360611  0.62141018     0.20400
C1678       C  0.62266470  0.53952257  0.62687179    -0.39500
C1679       C  0.62549923  0.56706373  0.62253181     0.19400
C1680       C  0.64889595  0.57801185  0.61351033     0.22000
C1681       C  0.67124448  0.56199161  0.60779629    -0.40000
C1682       C  0.66836352  0.53431331  0.61202507     0.20800
N1683       N  0.64814956  0.49742962  0.62624331    -0.33300
C1684       C  0.67362336  0.49118462  0.61993143    -0.10800
C1685       C  0.68682187  0.51360878  0.61062637    -0.29600
N1686       N  0.64728181  0.60497457  0.61309104    -0.46200
C1687       C  0.62271164  0.61119618  0.62195611    -0.05500
C1688       C  0.60849291  0.58801370  0.62782153    -0.22900
H1689       H  0.60474339  0.53119405  0.63487953     0.18900
H1690       H  0.68985418  0.57056603  0.60143930     0.17700
H1691       H  0.70764352  0.51504255  0.60537688     0.14000
H1692       H  0.58894232  0.58673155  0.63614469     0.13900
H1693       H  0.63418325  0.48482956  0.63449538     0.32000
H1694       H  0.66240748  0.61834679  0.60813333     0.34800
C1695       C  0.53223814  0.35364386  0.61775985     0.20400
C1696       C  0.54787847  0.37636422  0.62270591    -0.39500
C1697       C  0.57501219  0.37448357  0.61651963     0.19400
C1698       C  0.58582323  0.35160048  0.60634093     0.22000
C1699       C  0.57006346  0.32894815  0.60111255    -0.40000
C1700       C  0.54280800  0.33090236  0.60713572     0.20800
N1701       N  0.50663812  0.34957030  0.62410427    -0.33300
C1702       C  0.50067669  0.32411844  0.61741523    -0.10800
C1703       C  0.52265520  0.31186406  0.60650289    -0.29600
N1704       N  0.61266267  0.35359410  0.60508521    -0.46200
C1705       C  0.61894542  0.37784262  0.61462427    -0.05500
C1706       C  0.59593327  0.39161079  0.62159285    -0.22900
H1707       H  0.53978177  0.39374566  0.63179728     0.18900
H1708       H  0.57863880  0.31070335  0.59395076     0.17700
H1709       H  0.52421096  0.29130677  0.60045480     0.14000
H1710       H  0.59486587  0.41049628  0.63113783     0.13900
H1711       H  0.49427646  0.36294609  0.63335028     0.32000
H1712       H  0.62598841  0.33862117  0.59969918     0.34800
C1713       C  0.82746166  0.34843810  0.35838157     0.20400
C1714       C  0.85201123  0.33977094  0.36849124    -0.39500
C1715       C  0.86207360  0.31517180  0.35975033     0.19400
C1716       C  0.84854284  0.30057811  0.34232249     0.22000
C1717       C  0.82428294  0.30917360  0.33229207    -0.40000
C1718       C  0.81432803  0.33346854  0.34098554     0.20800
N1719       N  0.81198713  0.36926334  0.36539464    -0.33300
C1720       C  0.78882241  0.36701423  0.35256053    -0.10800
C1721       C  0.78980805  0.34509640  0.33706370    -0.29600
N1722       N  0.85999225  0.27659924  0.33904695    -0.46200
C1723       C  0.88098231  0.27540233  0.35451246    -0.05500
C1724       C  0.88330802  0.29931482  0.36756472    -0.22900
H1725       H  0.86178572  0.35060862  0.38294714     0.18900
H1726       H  0.81314228  0.29699811  0.31959128     0.17700
H1727       H  0.77379297  0.33745197  0.32577935     0.14000
H1728       H  0.89696737  0.30347337  0.38228844     0.13900
H1729       H  0.81599980  0.38276020  0.37933027     0.32000
H1730       H  0.85279397  0.26115191  0.32807792     0.34800
C1731       C  0.64395827  0.52351900  0.37173116     0.20400
C1732       C  0.62091052  0.53836113  0.36626022    -0.39500
C1733       C  0.62206254  0.56565897  0.37182207     0.19400
C1734       C  0.64433718  0.57730311  0.38246761     0.22000
C1735       C  0.66760694  0.56241815  0.38775057    -0.40000
C1736       C  0.66662093  0.53504332  0.38178500     0.20800
N1737       N  0.64848713  0.49786530  0.36604217    -0.33300
C1738       C  0.67435947  0.49285704  0.37200134    -0.10800
C1739       C  0.68640645  0.51554110  0.38208092    -0.29600
N1740       N  0.64124206  0.60404391  0.38380868    -0.46200
C1741       C  0.61720415  0.60937630  0.37334721    -0.05500
C1742       C  0.60456500  0.58592799  0.36586383    -0.22900
H1743       H  0.60382263  0.52953246  0.35717816     0.18900
H1744       H  0.68556317  0.57172309  0.39486056     0.17700
H1745       H  0.70709352  0.51785822  0.38762394     0.14000
H1746       H  0.58599920  0.58415520  0.35583547     0.13900
H1747       H  0.63515116  0.48495575  0.35727642     0.32000
H1748       H  0.65552518  0.61797367  0.38956803     0.34800
C1749       C  0.58293253  0.37492915  0.37680299     0.20400
C1750       C  0.55551938  0.37956412  0.37302375    -0.39500
C1751       C  0.53862609  0.35741985  0.37643984     0.19400
C1752       C  0.54823509  0.33239175  0.38291040     0.22000
C1753       C  0.57568496  0.32786726  0.38710148    -0.40000
C1754       C  0.59261492  0.35015004  0.38395844     0.20800
N1755       N  0.60321041  0.39176003  0.37179227    -0.33300
C1756       C  0.62601409  0.37776910  0.37599236    -0.10800
C1757       C  0.62025284  0.35184785  0.38395202    -0.29600
N1758       N  0.52850232  0.31393881  0.38188363    -0.46200
C1759       C  0.50624988  0.32736983  0.37463560    -0.05500
C1760       C  0.51176402  0.35458540  0.37145863    -0.22900
H1761       H  0.54803708  0.39865230  0.36660982     0.18900
H1762       H  0.58345163  0.30814830  0.39128843     0.17700
H1763       H  0.63434354  0.33570559  0.38703928     0.14000
H1764       H  0.49839963  0.36984106  0.36447418     0.13900
H1765       H  0.60166468  0.41106333  0.36461056     0.32000
H1766       H  0.53044365  0.29328286  0.38441624     0.34800
C1767       C  0.73045023  0.41683257  0.47293965     0.20400
C1768       C  0.73588891  0.43083064  0.49442142    -0.39500
C1769       C  0.72924638  0.41736975  0.51587693     0.19400
C1770       C  0.71780366  0.39208245  0.51581598     0.22000
C1771       C  0.71268361  0.37802011  0.49443056    -0.40000
C1772       C  0.71955726  0.39131142  0.47308318     0.20800
N1773       N  0.73421689  0.42533841  0.45015209    -0.33300
C1774       C  0.72587827  0.40491956  0.43580737    -0.10800
C1775       C  0.71671851  0.38336181  0.44947991    -0.29600
N1776       N  0.71256521  0.38390113  0.53836484    -0.46200
C1777       C  0.72093957  0.40393880  0.55303197    -0.05500
C1778       C  0.73161203  0.42515948  0.53970292    -0.22900
H1779       H  0.74444817  0.45076666  0.49442709     0.18900
H1780       H  0.70378089  0.35823237  0.49440887     0.17700
H1781       H  0.70844375  0.36464456  0.44297672     0.14000
H1782       H  0.73961213  0.44385770  0.54651009     0.13900
H1783       H  0.74178803  0.44388914  0.44469383     0.32000
H1784       H  0.70390730  0.36570768  0.54348820     0.34800
C1785       C  0.15905857  0.29678605  0.84071875     0.20400
C1786       C  0.18260539  0.30561710  0.82960769    -0.39500
C1787       C  0.19262782  0.33026919  0.83754590     0.19400
C1788       C  0.18008725  0.34538432  0.85512322     0.22000
C1789       C  0.15610780  0.33668532  0.86605261    -0.40000
C1790       C  0.14608315  0.31172169  0.85817246     0.20800
N1791       N  0.14803779  0.27237206  0.83865197    -0.33300
C1792       C  0.12781886  0.27141071  0.85483847    -0.10800
C1793       C  0.12559408  0.29578424  0.86714227    -0.29600
N1794       N  0.19584923  0.36612177  0.86181266    -0.46200
C1795       C  0.21865108  0.36367446  0.84867693    -0.05500
C1796       C  0.21709544  0.34182140  0.83313669    -0.22900
H1797       H  0.19341116  0.29324709  0.81690015     0.18900
H1798       H  0.14692326  0.34765697  0.88067869     0.17700
H1799       H  0.11240207  0.30033248  0.88203225     0.14000
H1800       H  0.23282002  0.33400256  0.82172492     0.13900
H1801       H  0.15487074  0.25668667  0.82782080     0.32000
H1802       H  0.19237718  0.37955628  0.87589152     0.34800
C1803       C  0.25963517  0.49238795  0.76739022     0.20400
C1804       C  0.26042654  0.51732633  0.75567865    -0.39500
C1805       C  0.25993142  0.51657396  0.73040365     0.19400
C1806       C  0.25882484  0.49272964  0.71767822     0.22000
C1807       C  0.25789988  0.46774678  0.72940010    -0.40000
C1808       C  0.25830819  0.46850767  0.75472713     0.20800
N1809       N  0.26375490  0.48773026  0.79098918    -0.33300
C1810       C  0.26500964  0.46075554  0.79346562    -0.10800
C1811       C  0.26160080  0.44804495  0.77126868    -0.29600
N1812       N  0.26257717  0.49721799  0.69400153    -0.46200
C1813       C  0.26602484  0.52404616  0.69166044    -0.05500
C1814       C  0.26444459  0.53678370  0.71394284    -0.22900
H1815       H  0.26298903  0.53588921  0.76551042     0.18900
H1816       H  0.25855117  0.44905150  0.71952987     0.17700
H1817       H  0.26395203  0.42690422  0.76744209     0.14000
H1818       H  0.26878271  0.55759876  0.71783653     0.13900
H1819       H  0.26772549  0.50201919  0.80428840     0.32000
H1820       H  0.26498721  0.48276329  0.68056669     0.34800
C1821       C  0.32586868  0.32864083  0.76127471     0.20400
C1822       C  0.33691639  0.30634835  0.74946113    -0.39500
C1823       C  0.33914430  0.30860094  0.72430006     0.19400
C1824       C  0.33097682  0.33137573  0.71198263     0.22000
C1825       C  0.31993744  0.35350435  0.72372765    -0.40000
C1826       C  0.31778722  0.35126264  0.74872127     0.20800
N1827       N  0.32452438  0.33292629  0.78519743    -0.33300
C1828       C  0.31597926  0.35857246  0.78760226    -0.10800
C1829       C  0.31130636  0.37047333  0.76530514    -0.29600
N1830       N  0.33916030  0.33063045  0.68905360    -0.46200
C1831       C  0.35273738  0.30737769  0.68665077    -0.05500
C1832       C  0.35294576  0.29285022  0.70811079    -0.22900
H1833       H  0.34476766  0.28928409  0.75925304     0.18900
H1834       H  0.31506957  0.37186304  0.71426357     0.17700
H1835       H  0.30559591  0.39103579  0.76172741     0.14000
H1836       H  0.36458441  0.27508156  0.71212477     0.13900
H1837       H  0.33075819  0.31997086  0.79890998     0.32000
H1838       H  0.33813643  0.34625905  0.67652969     0.34800
C1839       C  0.14730290  0.31782911  0.13553235     0.20400
C1840       C  0.15682908  0.34137855  0.12442101    -0.39500
C1841       C  0.18183649  0.35088765  0.13259623     0.19400
C1842       C  0.19618897  0.33777528  0.15044825     0.22000
C1843       C  0.18659079  0.31452385  0.16171318    -0.40000
C1844       C  0.16171721  0.30506907  0.15355636     0.20800
N1845       N  0.12650778  0.30244571  0.12837450    -0.33300
C1846       C  0.12791241  0.27973003  0.14179110    -0.10800
C1847       C  0.14946018  0.28080815  0.15779590    -0.29600
N1848       N  0.22085085  0.34825048  0.15264416    -0.46200
C1849       C  0.22247355  0.36820400  0.13612315    -0.05500
C1850       C  0.19833978  0.37081371  0.12348448    -0.22900
H1851       H  0.14640719  0.35058395  0.10941332     0.18900
H1852       H  0.19853166  0.30350447  0.17468629     0.17700
H1853       H  0.15693798  0.26467619  0.16901768     0.14000
H1854       H  0.19432316  0.38376373  0.10823923     0.13900
H1855       H  0.11393228  0.30589634  0.11360567     0.32000
H1856       H  0.23628281  0.34114093  0.16370515     0.34800
C1857       C  0.28439039  0.41249337  0.01307605     0.20400
C1858       C  0.28217463  0.42785124  0.99200878    -0.39500
C1859       C  0.28267941  0.41354683  0.97030557     0.19400
C1860       C  0.28543928  0.38596958  0.96945363     0.22000
C1861       C  0.28780931  0.37050237  0.99064874    -0.40000
C1862       C  0.28710029  0.38488946  0.01252320     0.20800
N1863       N  0.28403581  0.42154800  0.03586286    -0.33300
C1864       C  0.28649749  0.39967998  0.05018773    -0.10800
C1865       C  0.28854916  0.37635306  0.03628033    -0.29600
N1866       N  0.28558565  0.37739747  0.94637251    -0.46200
C1867       C  0.28284171  0.39977534  0.93259273    -0.05500
C1868       C  0.28092495  0.42260893  0.94695004    -0.22900
H1869       H  0.28007257  0.44943653  0.99248779     0.18900
H1870       H  0.28994399  0.34892329  0.99015750     0.17700
H1871       H  0.29075758  0.35597485  0.04268199     0.14000
H1872       H  0.27891979  0.44319768  0.94104325     0.13900
H1873       H  0.28224937  0.44149382  0.04134803     0.32000
H1874       H  0.28764614  0.35766847  0.94037283     0.34800
C1875       C  0.25953422  0.48111350  0.22178726     0.20400
C1876       C  0.24947976  0.48083638  0.24558726    -0.39500
C1877       C  0.25779500  0.50216127  0.26061367     0.19400
C1878       C  0.27489807  0.52196469  0.25235170     0.22000
C1879       C  0.28499576  0.52214906  0.22885102    -0.40000
C1880       C  0.27668206  0.50109879  0.21398762     0.20800
N1881       N  0.25728499  0.46179936  0.20480301    -0.33300
C1882       C  0.27342125  0.46958849  0.18637547    -0.10800
C1883       C  0.28565500  0.49400829  0.19150857    -0.29600
N1884       N  0.28252650  0.53810499  0.27037675    -0.46200
C1885       C  0.27050707  0.52882078  0.29055251    -0.05500
C1886       C  0.25455502  0.50646902  0.28523822    -0.22900
H1887       H  0.23719546  0.46457273  0.25224024     0.18900
H1888       H  0.29947306  0.53690809  0.22294571     0.17700
H1889       H  0.30091622  0.50406688  0.18101964     0.14000
H1890       H  0.24428360  0.49361708  0.29792719     0.13900
H1891       H  0.24738922  0.44344955  0.20651766     0.32000
H1892       H  0.29676641  0.55343185  0.26937874     0.34800
C1893       C  0.33748605  0.33034939  0.21999039     0.20400
C1894       C  0.35490814  0.31199245  0.23097870    -0.39500
C1895       C  0.35619429  0.31317296  0.25617357     0.19400
C1896       C  0.34071642  0.33078511  0.26950965     0.22000
C1897       C  0.32348426  0.34932181  0.25850385    -0.40000
C1898       C  0.32274942  0.34863847  0.23327412     0.20800
N1899       N  0.33579709  0.33585519  0.19636095    -0.33300
C1900       C  0.32067930  0.35828104  0.19472097    -0.10800
C1901       C  0.31189368  0.36671304  0.21726890    -0.29600
N1902       N  0.34782200  0.33008796  0.29286239    -0.46200
C1903       C  0.36845828  0.31256876  0.29420783    -0.05500
C1904       C  0.37416155  0.30144916  0.27178735    -0.22900
H1905       H  0.36794600  0.29910599  0.22059150     0.18900
H1906       H  0.31293924  0.36444338  0.26874733     0.17700
H1907       H  0.30093994  0.38482948  0.22149634     0.14000
H1908       H  0.39058440  0.28822442  0.26725111     0.13900
H1909       H  0.34640702  0.32657653  0.18247107     0.32000
H1910       H  0.34087192  0.34260688  0.30657408     0.31600
C1911       C  0.64679398  0.17199382  0.86128653     0.20400
C1912       C  0.65503506  0.14764365  0.87191379    -0.39500
C1913       C  0.67825150  0.13583946  0.86211820     0.19400
C1914       C  0.69193217  0.14753328  0.84314906     0.22000
C1915       C  0.68376674  0.17169818  0.83261686    -0.40000
C1916       C  0.66088214  0.18347482  0.84247200     0.20800
N1917       N  0.62711659  0.18858717  0.86869547    -0.33300
C1918       C  0.62916122  0.21081774  0.85468207    -0.10800
C1919       C  0.64991165  0.20825050  0.83811611    -0.29600
N1920       N  0.71509990  0.13480503  0.83912817    -0.46200
C1921       C  0.71672475  0.11496916  0.85572595    -0.05500
C1922       C  0.69381666  0.11454772  0.87019917    -0.22900
H1923       H  0.64498611  0.13928971  0.88745919     0.18900
H1924       H  0.69534949  0.18144393  0.81866155     0.17700
H1925       H  0.65697948  0.22319144  0.82547697     0.14000
H1926       H  0.69043093  0.10237072  0.88605021     0.13900
H1927       H  0.61431904  0.18576029  0.88333938     0.32000
H1928       H  0.73003539  0.14068854  0.82706561     0.34800
C1929       C  0.65751464  0.32165053  0.71312858     0.20400
C1930       C  0.63470550  0.31247259  0.72514856    -0.39500
C1931       C  0.63747778  0.30904422  0.75001447     0.19400
C1932       C  0.66112664  0.31442689  0.76221990     0.22000
C1933       C  0.68399828  0.32388011  0.75016532    -0.40000
C1934       C  0.68127905  0.32721549  0.72510054     0.20800
N1935       N  0.65864315  0.32994060  0.69019987    -0.33300
C1936       C  0.68313809  0.34107338  0.68737959    -0.10800
C1937       C  0.69800650  0.33957681  0.70869282    -0.29600
N1938       N  0.65759241  0.31198148  0.78617943    -0.46200
C1939       C  0.63142548  0.30539651  0.78899405    -0.05500
C1940       C  0.61839482  0.30311633  0.76686477    -0.22900
H1941       H  0.61574089  0.30955898  0.71597506     0.18900
H1942       H  0.70208086  0.32951519  0.75972984     0.17700
H1943       H  0.71697191  0.34925614  0.71249862     0.14000
H1944       H  0.59731912  0.29929626  0.76363529     0.13900
H1945       H  0.64270158  0.33066374  0.67794788     0.32000
H1946       H  0.67155144  0.31616179  0.79973917     0.34800
C1947       C  0.49327636  0.25740318  0.77555648     0.20400
C1948       C  0.47010295  0.26615155  0.76365896    -0.39500
C1949       C  0.46983826  0.26281088  0.73864603     0.19400
C1950       C  0.49092056  0.25130637  0.72623514     0.22000
C1951       C  0.51428774  0.24256699  0.73819055    -0.40000
C1952       C  0.51467179  0.24612714  0.76336883     0.20800
N1953       N  0.49991490  0.26263246  0.79848374    -0.33300
C1954       C  0.52575855  0.25500159  0.80110723    -0.10800
C1955       C  0.53566123  0.24425655  0.77967388    -0.29600
N1956       N  0.48657972  0.25275122  0.70226023    -0.46200
C1957       C  0.46278684  0.26563387  0.69958517    -0.05500
C1958       C  0.45179093  0.27210147  0.72187908    -0.22900
H1959       H  0.45413173  0.27642164  0.77304381     0.18900
H1960       H  0.53150067  0.23508538  0.72846942     0.17700
H1961       H  0.55628424  0.23926017  0.77568332     0.14000
H1962       H  0.43365612  0.28336714  0.72530690     0.13900
H1963       H  0.48855350  0.27354436  0.81085839     0.32000
H1964       H  0.49967931  0.24687036  0.68860440     0.34800
C1965       C  0.42481086  0.36997394  0.87167122     0.20400
C1966       C  0.45234587  0.37444131  0.86917531    -0.39500
C1967       C  0.46890472  0.35247060  0.87414479     0.19400
C1968       C  0.45895771  0.32760749  0.88066588     0.22000
C1969       C  0.43127315  0.32319487  0.88349976    -0.40000
C1970       C  0.41463192  0.34545979  0.87897503     0.20800
N1971       N  0.40497109  0.38711887  0.86612525    -0.33300
C1972       C  0.38187954  0.37368128  0.87027409    -0.10800
C1973       C  0.38703560  0.34769007  0.87849834    -0.29600
N1974       N  0.47885049  0.30929096  0.88139886    -0.46200
C1975       C  0.50147668  0.32280134  0.87531982    -0.05500
C1976       C  0.49600671  0.34978813  0.87106768    -0.22900
H1977       H  0.46027179  0.39339298  0.86290186     0.18900
H1978       H  0.42322707  0.30368830  0.88802607     0.17700
H1979       H  0.37255596  0.33203985  0.88208374     0.14000
H1980       H  0.50968817  0.36494402  0.86447702     0.13900
H1981       H  0.40699653  0.40648590  0.85919251     0.32000
H1982       H  0.47688414  0.28868692  0.88424128     0.34800
C1983       C  0.69816834  0.14762431  0.14865735     0.20400
C1984       C  0.68982733  0.17194672  0.15874094    -0.39500
C1985       C  0.66598616  0.18265213  0.14951227     0.19400
C1986       C  0.65125193  0.17010840  0.13159770     0.22000
C1987       C  0.65969665  0.14563057  0.12138738    -0.40000
C1988       C  0.68377902  0.13484956  0.13063620     0.20800
N1989       N  0.72182977  0.13551751  0.15230829    -0.33300
C1990       C  0.72288957  0.11481254  0.13660693    -0.10800
C1991       C  0.69941212  0.11356174  0.12277970    -0.29600
N1992       N  0.63094587  0.18605642  0.12418985    -0.46200
C1993       C  0.63326575  0.20900733  0.13720428    -0.05500
C1994       C  0.65470709  0.20740659  0.15330750    -0.22900
H1995       H  0.70188741  0.18257283  0.17188205     0.18900
H1996       H  0.64909941  0.13642695  0.10648595     0.17700
H1997       H  0.69550288  0.10062375  0.10751726     0.14000
H1998       H  0.66227020  0.22311711  0.16494489     0.13900
H1999       H  0.73734023  0.14222503  0.16348339     0.32000
H2000       H  0.61776668  0.18247768  0.10988237     0.34800
C2001       C  0.46355155  0.32620892  0.10902292     0.20400
C2002       C  0.43593658  0.32158409  0.10561351    -0.39500
C2003       C  0.41917005  0.34413233  0.10812311     0.19400
C2004       C  0.42917772  0.36916398  0.11408677     0.22000
C2005       C  0.45666098  0.37378774  0.11732055    -0.40000
C2006       C  0.47336558  0.35146008  0.11439387     0.20800
N2007       N  0.48355255  0.30799023  0.10924945    -0.33300
C2008       C  0.50619500  0.32189649  0.11469611    -0.10800
C2009       C  0.50054146  0.34904419  0.11786861    -0.29600
N2010       N  0.40917258  0.38666840  0.11787283    -0.46200
C2011       C  0.38615164  0.37290609  0.11405963    -0.05500
C2012       C  0.39152685  0.34634761  0.10768466    -0.22900
H2013       H  0.42802094  0.30179308  0.10196595     0.18900
H2014       H  0.46442159  0.39322087  0.12249409     0.17700
H2015       H  0.51426567  0.36467891  0.12345877     0.14000
H2016       H  0.37714648  0.33037533  0.10497493     0.13900
H2017       H  0.48172977  0.28728890  0.10697181     0.32000
H2018       H  0.41101465  0.40648287  0.12373197     0.34800
C2019       C  0.58300396  0.27125359  0.01617721     0.20400
C2020       C  0.56701409  0.27070438  0.99540261    -0.39500
C2021       C  0.58069580  0.27329860  0.97354986     0.19400
C2022       C  0.60824875  0.27625078  0.97233074     0.22000
C2023       C  0.62431490  0.27684761  0.99320599    -0.40000
C2024       C  0.61056993  0.27425935  0.01518365     0.20800
N2025       N  0.57461400  0.26972377  0.03908213    -0.33300
C2026       C  0.59691108  0.27191500  0.05292216    -0.10800
C2027       C  0.61980081  0.27470348  0.03868640    -0.29600
N2028       N  0.61624824  0.27821621  0.94922371    -0.46200
C2029       C  0.59354213  0.27638934  0.93579903    -0.05500
C2030       C  0.57103438  0.27338548  0.95036383    -0.22900
H2031       H  0.54545058  0.26850719  0.99620151     0.18900
H2032       H  0.64584986  0.27927490  0.99240990     0.17700
H2033       H  0.64029135  0.27724930  0.04472863     0.14000
H2034       H  0.55034545  0.27137332  0.94470067     0.13900
H2035       H  0.55482485  0.26787757  0.04495420     0.32000
H2036       H  0.63585315  0.28042191  0.94298234     0.34800
C2037       C  0.67161801  0.32498832  0.27055340     0.20400
C2038       C  0.65313002  0.30761098  0.25960586    -0.39500
C2039       C  0.65339921  0.30720107  0.23432879     0.19400
C2040       C  0.67141781  0.32219336  0.22094740     0.22000
C2041       C  0.68984324  0.33956526  0.23188523    -0.40000
C2042       C  0.68891663  0.34069703  0.25708094     0.20800
N2043       N  0.67226683  0.33231092  0.29386801    -0.33300
C2044       C  0.68943281  0.35330593  0.29497535    -0.10800
C2045       C  0.70034549  0.35898892  0.27250025    -0.29600
N2046       N  0.66524595  0.32121628  0.19739160    -0.46200
C2047       C  0.64260296  0.30639211  0.19589292    -0.05500
C2048       C  0.63479328  0.29695449  0.21844427    -0.22900
H2049       H  0.63812437  0.29697038  0.26991710     0.18900
H2050       H  0.70237870  0.35292495  0.22145502     0.17700
H2051       H  0.71318407  0.37566657  0.26777065     0.14000
H2052       H  0.61665999  0.28609697  0.22282607     0.13900
H2053       H  0.65989463  0.32528188  0.30765303     0.32000
H2054       H  0.67418356  0.33222259  0.18354948     0.34800
C2055       C  0.47786575  0.26366443  0.25430162     0.20400
C2056       C  0.47728457  0.27131746  0.23006377    -0.39500
C2057       C  0.49873369  0.26244934  0.21605518     0.19400
C2058       C  0.51943531  0.24708032  0.22535512     0.22000
C2059       C  0.51998797  0.23933755  0.24980014    -0.40000
C2060       C  0.49829452  0.24816169  0.26392732     0.20800
N2061       N  0.46153893  0.27250648  0.27165416    -0.33300
C2062       C  0.47135846  0.26265038  0.29259738    -0.10800
C2063       C  0.49417411  0.24707241  0.28862197    -0.29600
N2064       N  0.53919085  0.24450372  0.20895645    -0.46200
C2065       C  0.53091474  0.25859998  0.18936264    -0.05500
C2066       C  0.50577657  0.26984457  0.19313618    -0.22900
H2067       H  0.46203411  0.28461027  0.22295651     0.18900
H2068       H  0.53675920  0.22855088  0.25752828     0.17700
H2069       H  0.50728697  0.23835131  0.30207752     0.14000
H2070       H  0.49532411  0.28386423  0.18153407     0.13900
H2071       H  0.44562012  0.28593344  0.26959668     0.32000
H2072       H  0.55809997  0.23605814  0.21175755     0.34800
C2073       C  0.81916354  0.64054963  0.86001047     0.20400
C2074       C  0.84366212  0.64889633  0.87028032    -0.39500
C2075       C  0.85433742  0.67302176  0.86119630     0.19400
C2076       C  0.84132561  0.68762471  0.84344212     0.22000
C2077       C  0.81694657  0.67945015  0.83336435    -0.40000
C2078       C  0.80647384  0.65546450  0.84228832     0.20800
N2079       N  0.80367591  0.61965919  0.86669832    -0.33300
C2080       C  0.78095879  0.62176160  0.85329742    -0.10800
C2081       C  0.78215092  0.64370337  0.83780966    -0.29600
N2082       N  0.85384321  0.71092035  0.83942806    -0.46200
C2083       C  0.87505400  0.71150947  0.85467596    -0.05500
C2084       C  0.87630836  0.68805983  0.86845753    -0.22900
H2085       H  0.85318653  0.63796099  0.88481999     0.18900
H2086       H  0.80634313  0.69148773  0.82018536     0.17700
H2087       H  0.76649936  0.65106984  0.82596956     0.14000
H2088       H  0.88998845  0.68366997  0.88311479     0.13900
H2089       H  0.80745572  0.60604789  0.88061078     0.32000
H2090       H  0.84742521  0.72626432  0.82795047     0.34800
C2091       C  0.67895107  0.66256052  0.76587098     0.20400
C2092       C  0.66563721  0.68410138  0.75478187    -0.39500
C2093       C  0.66597413  0.68426971  0.72946651     0.19400
C2094       C  0.67906073  0.66470034  0.71625650     0.22000
C2095       C  0.69237908  0.64327533  0.72733964    -0.40000
C2096       C  0.69157199  0.64283290  0.75252091     0.20800
N2097       N  0.67806593  0.65563190  0.78929492    -0.33300
C2098       C  0.68961291  0.63108942  0.79058126    -0.10800
C2099       C  0.69851830  0.62260738  0.76810971    -0.29600
N2100       N  0.67228318  0.66625746  0.69289257    -0.46200
C2101       C  0.65434197  0.68647305  0.69115638    -0.05500
C2102       C  0.65015589  0.69846848  0.71351666    -0.22900
H2103       H  0.65395479  0.69835986  0.76502372     0.18900
H2104       H  0.70074004  0.62688100  0.71703923     0.17700
H2105       H  0.70715350  0.60336995  0.76354483     0.14000
H2106       H  0.63473934  0.71285761  0.71804450     0.13900
H2107       H  0.66832668  0.66588722  0.80314303     0.32000
H2108       H  0.67667797  0.65213186  0.67957920     0.34800
C2109       C  0.74931540  0.50455023  0.76370922     0.20400
C2110       C  0.75462916  0.50434365  0.73881905    -0.39500
C2111       C  0.74708933  0.48094303  0.72639922     0.19400
C2112       C  0.73501267  0.45952626  0.73796211     0.22000
C2113       C  0.72998609  0.45959538  0.76276870    -0.40000
C2114       C  0.73759867  0.48282814  0.77513439     0.20800
N2115       N  0.75020885  0.52584064  0.77861610    -0.33300
C2116       C  0.73877976  0.51754151  0.79945892    -0.10800
C2117       C  0.73100361  0.49081455  0.79802468    -0.29600
N2118       N  0.72630897  0.44135574  0.72194130    -0.46200
C2119       C  0.73285465  0.45108355  0.69994240    -0.05500
C2120       C  0.74619991  0.47560360  0.70194921    -0.22900
H2121       H  0.76238412  0.52177591  0.72954292     0.18900
H2122       H  0.71918424  0.44348956  0.77150700     0.17700
H2123       H  0.71902378  0.47981475  0.81092675     0.14000
H2124       H  0.75220484  0.48880241  0.68744759     0.13900
H2125       H  0.75535463  0.54548411  0.77402153     0.32000
H2126       H  0.71512061  0.42414426  0.72566529     0.34800
C2127       C  0.63978101  0.46178824  0.86740863     0.20400
C2128       C  0.61755737  0.44604684  0.86123333    -0.39500
C2129       C  0.61974316  0.41873925  0.86657668     0.19400
C2130       C  0.64227608  0.40786495  0.87744317     0.22000
C2131       C  0.66472793  0.42362428  0.88336273    -0.40000
C2132       C  0.66261777  0.45104145  0.87784804     0.20800
N2133       N  0.64326201  0.48782776  0.86245354    -0.33300
C2134       C  0.66862903  0.49382583  0.86937593    -0.10800
C2135       C  0.68136675  0.47142076  0.87924508    -0.29600
N2136       N  0.63995787  0.38106862  0.87914310    -0.46200
C2137       C  0.61601723  0.37496036  0.86888694    -0.05500
C2138       C  0.60280395  0.39792498  0.86095000    -0.22900
H2139       H  0.60020965  0.45431801  0.85212364     0.18900
H2140       H  0.68281783  0.41502615  0.89090710     0.17700
H2141       H  0.70195028  0.46988062  0.88530089     0.14000
H2142       H  0.58398462  0.39906830  0.85123321     0.13900
H2143       H  0.62969159  0.50037751  0.85355369     0.32000
H2144       H  0.65443822  0.36764745  0.88545375     0.34800
C2145       C  0.85699832  0.67577643  0.12978572     0.20400
C2146       C  0.84873563  0.65079962  0.12042455    -0.39500
C2147       C  0.82386580  0.64111836  0.12878922     0.19400
C2148       C  0.80854454  0.65543031  0.14507814     0.22000
C2149       C  0.81673458  0.68017255  0.15437247    -0.40000
C2150       C  0.84139941  0.68969612  0.14612465     0.20800
N2151       N  0.87844203  0.69062413  0.12324918    -0.33300
C2152       C  0.87602059  0.71414737  0.13538823    -0.10800
C2153       C  0.85331328  0.71408631  0.14990184    -0.29600
N2154       N  0.78473976  0.64362365  0.14849028    -0.46200
C2155       C  0.78453596  0.62152717  0.13433102    -0.05500
C2156       C  0.80875778  0.61903019  0.12189761    -0.22900
H2157       H  0.86025701  0.64022843  0.10694958     0.18900
H2158       H  0.80421428  0.69175984  0.16638433     0.17700
H2159       H  0.84560309  0.73047804  0.16061624     0.14000
H2160       H  0.81377101  0.60430455  0.10833067     0.13900
H2161       H  0.89270508  0.68583948  0.11020558     0.32000
H2162       H  0.76895566  0.65096305  0.15891117     0.34800
C2163       C  0.64885786  0.40512130  0.10469845     0.20400
C2164       C  0.67183368  0.42066358  0.09995119    -0.39500
C2165       C  0.66932267  0.44838417  0.10409931     0.19400
C2166       C  0.64555185  0.45960723  0.11198065     0.22000
C2167       C  0.62279103  0.44412502  0.11695494    -0.40000
C2168       C  0.62543931  0.41652571  0.11320362     0.20800
N2169       N  0.64684900  0.37819109  0.10464339    -0.33300
C2170       C  0.62226220  0.37254836  0.11373984    -0.10800
C2171       C  0.60830640  0.39595331  0.11913257    -0.29600
N2172       N  0.64872527  0.48577292  0.11657830    -0.46200
C2173       C  0.67482371  0.49145425  0.11217938    -0.05500
C2174       C  0.68836429  0.46865097  0.10409050    -0.22900
H2175       H  0.69062898  0.41168024  0.09458649     0.18900
H2176       H  0.60474916  0.45280820  0.12440638     0.17700
H2177       H  0.58891806  0.39762594  0.12770323     0.14000
H2178       H  0.70955029  0.46673565  0.10035317     0.13900
H2179       H  0.66197408  0.36449755  0.10048754     0.32000
H2180       H  0.63436212  0.49859574  0.12393214     0.34800
C2181       C  0.72592197  0.57022393  0.01451829     0.20400
C2182       C  0.72641502  0.55474174  0.99345003    -0.39500
C2183       C  0.72381103  0.56897121  0.97178941     0.19400
C2184       C  0.72099713  0.59656396  0.97105295     0.22000
C2185       C  0.72061599  0.61211023  0.99218175    -0.40000
C2186       C  0.72309959  0.59782475  0.01393652     0.20800
N2187       N  0.72680570  0.56126110  0.03733864    -0.33300
C2188       C  0.72431115  0.58323097  0.05150381    -0.10800
C2189       C  0.72212205  0.60647161  0.03756665    -0.29600
N2190       N  0.71810562  0.60509767  0.94815190    -0.46200
C2191       C  0.71903568  0.58270378  0.93432535    -0.05500
C2192       C  0.72270183  0.55984940  0.94843612    -0.22900
H2193       H  0.72819863  0.53312521  0.99390919     0.18900
H2194       H  0.71804411  0.63364433  0.99174312     0.17700
H2195       H  0.71942419  0.62681368  0.04387143     0.14000
H2196       H  0.72405076  0.53926405  0.94240334     0.13900
H2197       H  0.72824261  0.54131220  0.04293176     0.32000
H2198       H  0.71548873  0.62483484  0.94231132     0.34800
C2199       C  0.65124058  0.67229494  0.25694078     0.20400
C2200       C  0.65007237  0.67342123  0.23171443    -0.39500
C2201       C  0.66662003  0.65526254  0.21958773     0.19400
C2202       C  0.68266821  0.63701665  0.23173002     0.22000
C2203       C  0.68424706  0.63625930  0.25693047    -0.40000
C2204       C  0.66810535  0.65476152  0.26905313     0.20800
N2205       N  0.63468899  0.68450446  0.27242746    -0.33300
C2206       C  0.64120206  0.67476135  0.29445947    -0.10800
C2207       C  0.66230894  0.65662361  0.29321172    -0.29600
N2208       N  0.69356734  0.61952029  0.21628684    -0.46200
C2209       C  0.68468172  0.62692571  0.19419343    -0.05500
C2210       C  0.66811300  0.64931731  0.19540452    -0.22900
H2211       H  0.63619256  0.68640468  0.22225785     0.18900
H2212       H  0.69600602  0.62134852  0.26640863     0.17700
H2213       H  0.67007230  0.64415452  0.30760460     0.14000
H2214       H  0.65688292  0.65847139  0.18084206     0.13900
H2215       H  0.61861390  0.69706160  0.26811376     0.32000
H2216       H  0.70526669  0.60280917  0.22058369     0.34800
C2217       C  0.75021494  0.51097448  0.22684902     0.20400
C2218       C  0.75527944  0.51299191  0.25181431    -0.39500
C2219       C  0.75117673  0.48944403  0.26539028     0.19400
C2220       C  0.74242933  0.46587474  0.25480412     0.22000
C2221       C  0.73740083  0.46388171  0.22999768    -0.40000
C2222       C  0.74167539  0.48721269  0.21649863     0.20800
N2223       N  0.74936727  0.53102580  0.21051525    -0.33300
C2224       C  0.74017772  0.51982324  0.18976173    -0.10800
C2225       C  0.73521192  0.49259664  0.19286210    -0.29600
N2226       N  0.73643210  0.44751721  0.27164579    -0.46200
C2227       C  0.74140939  0.45917077  0.29323320    -0.05500
C2228       C  0.75085666  0.48533057  0.29012493    -0.22900
H2229       H  0.76061269  0.53183062  0.26022336     0.18900
H2230       H  0.72925367  0.44584397  0.22198309     0.17700
H2231       H  0.72575960  0.47911939  0.18012385     0.14000
H2232       H  0.75428215  0.50016118  0.30402592     0.13900
H2233       H  0.75253967  0.55139710  0.21380425     0.32000
H2234       H  0.72744164  0.42887485  0.26872993     0.34800
C2235       C  0.32416801  0.84753120  0.86069495     0.20400
C2236       C  0.34855906  0.83879125  0.87090921    -0.39500
C2237       C  0.35983866  0.81555589  0.86065981     0.19400
C2238       C  0.34765872  0.80221155  0.84168002     0.22000
C2239       C  0.32332617  0.81076622  0.83166794    -0.40000
C2240       C  0.31208855  0.83375872  0.84192437     0.20800
N2241       N  0.30791466  0.86720978  0.86871666    -0.33300
C2242       C  0.28523586  0.86542210  0.85520969    -0.10800
C2243       C  0.28725249  0.84492917  0.83827111    -0.29600
N2244       N  0.36014102  0.77896401  0.83717229    -0.46200
C2245       C  0.38039025  0.77713758  0.85336324    -0.05500
C2246       C  0.38101797  0.79967409  0.86830271    -0.22900
H2247       H  0.35733596  0.84849474  0.88649151     0.18900
H2248       H  0.31308701  0.79941644  0.81779173     0.17700
H2249       H  0.27182175  0.83796699  0.82601447     0.14000
H2250       H  0.39330339  0.80259188  0.88420132     0.13900
H2251       H  0.31114972  0.87962672  0.88359599     0.32000
H2252       H  0.35375117  0.76400685  0.82528943     0.34800
C2253       C  0.47439507  0.72541800  0.75463540     0.20400
C2254       C  0.47441272  0.72555401  0.72930735    -0.39500
C2255       C  0.49962281  0.72846047  0.71838944     0.19400
C2256       C  0.52303123  0.73060494  0.73175383     0.22000
C2257       C  0.52290025  0.73126902  0.75701547    -0.40000
C2258       C  0.49772048  0.72879297  0.76789499     0.20800
N2259       N  0.45379522  0.71924900  0.76922135    -0.33300
C2260       C  0.46410550  0.71910409  0.79186331    -0.10800
C2261       C  0.49130126  0.72535051  0.79179593    -0.29600
N2262       N  0.54460950  0.72829973  0.71748212    -0.46200
C2263       C  0.53495486  0.72498038  0.69484268    -0.05500
C2264       C  0.50699037  0.72546584  0.69459156    -0.22900
H2265       H  0.45638788  0.72193179  0.71889431     0.18900
H2266       H  0.54124513  0.73191816  0.76747059     0.17700
H2267       H  0.50498800  0.72494846  0.80697501     0.14000
H2268       H  0.49392558  0.72103719  0.67949128     0.13900
H2269       H  0.43430573  0.71413061  0.76404008     0.32000
H2270       H  0.56461131  0.72705731  0.72300241     0.34800
C2271       C  0.31911952  0.63398515  0.73396619     0.20400
C2272       C  0.31837215  0.63074681  0.75898624    -0.39500
C2273       C  0.32847445  0.65213310  0.77248964     0.19400
C2274       C  0.33868015  0.67509441  0.76189004     0.22000
C2275       C  0.33923520  0.67840929  0.73670094    -0.40000
C2276       C  0.32897111  0.65695126  0.72311919     0.20800
N2277       N  0.31351099  0.61524935  0.71748590    -0.33300
C2278       C  0.31971183  0.62617422  0.69589718    -0.10800
C2279       C  0.32915591  0.65235602  0.69851941    -0.29600
N2280       N  0.35133171  0.69023441  0.77844913    -0.46200
C2281       C  0.34933880  0.67666738  0.79954992    -0.05500
C2282       C  0.33496426  0.65300117  0.79654694    -0.22900
H2283       H  0.31201961  0.61216514  0.76728788     0.18900
H2284       H  0.34849000  0.69565603  0.72830059     0.17700
H2285       H  0.33679995  0.66544680  0.68457713     0.14000
H2286       H  0.33286838  0.63687394  0.80948011     0.13900
H2287       H  0.30693229  0.59571326  0.72082490     0.32000
H2288       H  0.36339406  0.70693079  0.77506827     0.34800
C2289       C  0.58361121  0.63151521  0.87738584     0.20400
C2290       C  0.56707985  0.65239181  0.88580546    -0.39500
C2291       C  0.53987852  0.65087363  0.87903939     0.19400
C2292       C  0.53013173  0.63012157  0.86496474     0.22000
C2293       C  0.54657613  0.60943633  0.85651929    -0.40000
C2294       C  0.57358907  0.61099339  0.86320251     0.20800
N2295       N  0.61040593  0.62916202  0.87982228    -0.33300
C2296       C  0.61733242  0.60718398  0.86682804    -0.10800
C2297       C  0.59488493  0.59534609  0.85629720    -0.29600
N2298       N  0.50433653  0.63418516  0.85925409    -0.46200
C2299       C  0.49733404  0.65777183  0.86954201    -0.05500
C2300       C  0.51891901  0.66874864  0.88231154    -0.22900
H2301       H  0.57496879  0.66901709  0.89615094     0.18900
H2302       H  0.53904992  0.59377158  0.84482033     0.17700
H2303       H  0.59440141  0.57828345  0.84425708     0.14000
H2304       H  0.51970138  0.68798609  0.89128773     0.13900
H2305       H  0.62331859  0.64245204  0.88862200     0.32000
H2306       H  0.49255050  0.62224468  0.84794842     0.34800
C2307       C  0.35201196  0.57808800  0.88023719     0.20400
C2308       C  0.32858975  0.56254370  0.88183228    -0.39500
C2309       C  0.33223596  0.53467536  0.88057298     0.19400
C2310       C  0.35734873  0.52323881  0.87801857     0.22000
C2311       C  0.38073143  0.53876115  0.87650475    -0.40000
C2312       C  0.37707336  0.56657576  0.87761454     0.20800
N2313       N  0.35362692  0.60489626  0.87831259    -0.33300
C2314       C  0.37982545  0.61044686  0.87414418    -0.10800
C2315       C  0.39510030  0.58706032  0.87378381    -0.29600
N2316       N  0.35527566  0.49673933  0.87430932    -0.46200
C2317       C  0.32868012  0.49119962  0.87418495    -0.05500
C2318       C  0.31364045  0.51430186  0.87841085    -0.22900
H2319       H  0.30887255  0.57152982  0.88266637     0.18900
H2320       H  0.40018899  0.52987489  0.87332843     0.17700
H2321       H  0.41619731  0.58517763  0.86962883     0.14000
H2322       H  0.29204709  0.51630093  0.87782903     0.13900
H2323       H  0.33764551  0.61842060  0.87821509     0.32000
H2324       H  0.37092291  0.48356778  0.87033735     0.34800
C2325       C  0.32621991  0.84611291  0.13138603     0.20400
C2326       C  0.34945677  0.83648256  0.11984105    -0.39500
C2327       C  0.36038359  0.81259107  0.12926870     0.19400
C2328       C  0.34872815  0.79934574  0.14850839     0.22000
C2329       C  0.32569033  0.80890076  0.15996086    -0.40000
C2330       C  0.31497518  0.83267575  0.15070296     0.20800
N2331       N  0.31035941  0.86669353  0.12453139    -0.33300
C2332       C  0.28885657  0.86596979  0.13948738    -0.10800
C2333       C  0.29120858  0.84513331  0.15606862    -0.29600
N2334       N  0.36064635  0.77566451  0.15236993    -0.46200
C2335       C  0.38014200  0.77349831  0.13557799    -0.05500
C2336       C  0.38094108  0.79633850  0.12096401    -0.22900
H2337       H  0.35769742  0.84618351  0.10406238     0.18900
H2338       H  0.31601125  0.79786336  0.17430991     0.17700
H2339       H  0.27643945  0.83868699  0.16910104     0.14000
H2340       H  0.39315248  0.79948251  0.10512667     0.13900
H2341       H  0.31288488  0.87900481  0.10947259     0.32000
H2342       H  0.35476614  0.76104670  0.16477471     0.34800
C2343       C  0.57933607  0.60936115  0.11416212     0.20400
C2344       C  0.55212437  0.60507211  0.11892869    -0.39500
C2345       C  0.53520938  0.62697053  0.11467029     0.19400
C2346       C  0.54463066  0.65144523  0.10649204     0.22000
C2347       C  0.57186851  0.65561878  0.10138785    -0.40000
C2348       C  0.58880918  0.63356554  0.10539604     0.20800
N2349       N  0.59969776  0.59269852  0.11925722    -0.33300
C2350       C  0.62231036  0.60621464  0.11346770    -0.10800
C2351       C  0.61637209  0.63168157  0.10451668    -0.29600
N2352       N  0.52502462  0.66996645  0.10686775    -0.46200
C2353       C  0.50310531  0.65712672  0.11546467    -0.05500
C2354       C  0.50859613  0.63020641  0.12012767    -0.22900
H2355       H  0.54484711  0.58647518  0.12655312     0.18900
H2356       H  0.57949398  0.67495773  0.09581396     0.17700
H2357       H  0.63039919  0.64743292  0.09996643     0.14000
H2358       H  0.49545703  0.61554746  0.12832013     0.13900
H2359       H  0.59838896  0.57381513  0.12732142     0.32000
H2360       H  0.52688484  0.69038173  0.10303325     0.34800
C2361       C  0.36369140  0.57757133  0.10318141     0.20400
C2362       C  0.34056957  0.56213722  0.09888160    -0.39500
C2363       C  0.34337302  0.53433011  0.10203435     0.19400
C2364       C  0.36753668  0.52278511  0.10860675     0.22000
C2365       C  0.39060465  0.53819464  0.11302951    -0.40000
C2366       C  0.38765997  0.56600812  0.11033070     0.20800
N2367       N  0.36528252  0.60446216  0.10434983    -0.33300
C2368       C  0.39010804  0.61004847  0.11300056    -0.10800
C2369       C  0.40476612  0.58658895  0.11671306    -0.29600
N2370       N  0.36439618  0.49647029  0.11288283    -0.46200
C2371       C  0.33798762  0.49115115  0.10945034    -0.05500
C2372       C  0.32423351  0.51426411  0.10242469    -0.22900
H2373       H  0.32141417  0.57126109  0.09476919     0.18900
H2374       H  0.40903914  0.52930409  0.11955781     0.17700
H2375       H  0.42454595  0.58478999  0.12462530     0.14000
H2376       H  0.30284286  0.51651957  0.09983525     0.13900
H2377       H  0.34969675  0.61808037  0.10146528     0.32000
H2378       H  0.37898620  0.48333621  0.11948411     0.34800
C2379       C  0.39921846  0.70399440  0.97308354     0.20400
C2380       C  0.38552351  0.69817904  0.99450168    -0.39500
C2381       C  0.39952679  0.70376119  0.01587046     0.19400
C2382       C  0.42534344  0.71396295  0.01590191     0.22000
C2383       C  0.43896101  0.71995359  0.99447759    -0.40000
C2384       C  0.42481288  0.71473624  0.97310331     0.20800
N2385       N  0.39042982  0.70021791  0.95043317    -0.33300
C2386       C  0.41048287  0.70881712  0.93593831    -0.10800
C2387       C  0.43221412  0.71815919  0.94939622    -0.29600
N2388       N  0.43445498  0.71695239  0.03855952    -0.46200
C2389       C  0.41417219  0.70887030  0.05302466    -0.05500
C2390       C  0.39202866  0.70056787  0.03955630    -0.22900
H2391       H  0.36546762  0.68990100  0.99452454     0.18900
H2392       H  0.45909031  0.72804666  0.99445284     0.17700
H2393       H  0.45105844  0.72588206  0.94271880     0.14000
H2394       H  0.37317165  0.69285675  0.04622063     0.13900
H2395       H  0.37197113  0.69222037  0.94514998     0.32000
H2396       H  0.45325684  0.72408500  0.04386273     0.34800
C2397       C  0.50132509  0.73049963  0.27041442     0.20400
C2398       C  0.47704352  0.72626581  0.25826812    -0.39500
C2399       C  0.47759454  0.72998755  0.23326798     0.19400
C2400       C  0.50064081  0.73728178  0.22106864     0.22000
C2401       C  0.52507142  0.74154337  0.23328743    -0.40000
C2402       C  0.52448552  0.73796231  0.25846641     0.20800
N2403       N  0.50659500  0.72465187  0.29355765    -0.33300
C2404       C  0.53323010  0.72846624  0.29661001    -0.10800
C2405       C  0.54515461  0.73688935  0.27515387    -0.29600
N2406       N  0.49666816  0.73573564  0.19704428    -0.46200
C2407       C  0.47102184  0.72722862  0.19412778    -0.05500
C2408       C  0.45854385  0.72360824  0.21627780    -0.22900
H2409       H  0.45937273  0.71896789  0.26745018     0.18900
H2410       H  0.54349150  0.74576924  0.22376050     0.17700
H2411       H  0.56636646  0.73910150  0.27163536     0.14000
H2412       H  0.43902042  0.71486235  0.21949685     0.13900
H2413       H  0.49331232  0.71635399  0.30602959     0.32000
H2414       H  0.51114056  0.73783253  0.18361250     0.34800
C2415       C  0.35401501  0.67519337  0.23174238     0.20400
C2416       C  0.35451168  0.67684377  0.25694103    -0.39500
C2417       C  0.33631449  0.66025124  0.26898197     0.19400
C2418       C  0.31917988  0.64305324  0.25677876     0.22000
C2419       C  0.31815527  0.64197594  0.23156743    -0.40000
C2420       C  0.33612667  0.65879713  0.21952872     0.20800
N2421       N  0.37212859  0.68544766  0.21651460    -0.33300
C2422       C  0.36555177  0.67565247  0.19453975    -0.10800
C2423       C  0.34294038  0.65939794  0.19553764    -0.29600
N2424       N  0.30772336  0.62577721  0.27212330    -0.46200
C2425       C  0.31752163  0.63215040  0.29415574    -0.05500
C2426       C  0.33493811  0.65388364  0.29307240    -0.22900
H2427       H  0.36935190  0.68862620  0.26649078     0.18900
H2428       H  0.30574288  0.62762061  0.22207274     0.17700
H2429       H  0.33452509  0.64736195  0.18115261     0.14000
H2430       H  0.34740787  0.66166411  0.30746351     0.13900
H2431       H  0.38895987  0.69689136  0.22099782     0.32000
H2432       H  0.29573826  0.60931524  0.26767858     0.34800
loop_ 
_geom_bond_atom_site_label_1 
_geom_bond_atom_site_label_2 
_geom_bond_distance 
_geom_bond_site_symmetry_2 
_ccdc_geom_bond_type 
O1           C16   1.259       .  A
O1           Al9   1.893       .  S
C2           O12   1.255       .  A
C2            O3   1.260       .  A
C2         C2422   1.457       .  S
O3           Al5   1.918       .  S
O4            C6   1.258       .  A
O4           Al5   1.879       .  S
Al5          O13   1.897       .  S
Al5          O15   1.912       .  S
Al5          O14   1.784       .  S
C6           O19   1.268       .  A
C6         C2335   1.472       .  S
O7           C17   1.260       .  A
O7           Al9   1.909       .  S
O8           C21   1.257       .  A
O8          Al18   1.869       .  S
Al9          O22   1.941       .  S
Al9          O19   1.949       .  S
Al9          O14   1.792       .  S
O10          C17   1.260       .  A
O10         Al18   1.908       .  S
O11          C20   1.265       .  A
O11         Al18   1.928       .  S
O12         Al18   1.884       .  S
O13          C20   1.260       .  A
O14         Al18   1.776       .  S
O15          C16   1.262       .  A
C16        C2389   1.468       .  S
C17        C2407   1.467       .  S
C20        C2368   1.473       .  S
C21          O22   1.268       .  A
C21        C2353   1.469       .  S
O23          C38   1.261       .  A
O23         Al31   1.915       .  S
C24          O34   1.259       .  A
C24          O25   1.258       .  A
C24        C2281   1.460       .  S
O25         Al27   1.903       .  S
O26          C28   1.261       .  A
O26         Al27   1.900       .  S
Al27         O35   1.899       .  S
Al27         O37   1.900       .  S
Al27         O36   1.780       .  S
C28          O41   1.264       .  A
C28        C2260   1.467       .  S
O29          C39   1.260       .  A
O29         Al31   1.912       .  S
O30          C43   1.260       .  A
O30         Al40   1.889       .  S
Al31         O44   1.918       .  S
Al31         O41   1.921       .  S
Al31         O36   1.793       .  S
O32          C39   1.258       .  A
O32         Al40   1.899       .  S
O33          C42   1.263       .  A
O33         Al40   1.924       .  S
O34         Al40   1.908       .  S
O35          C42   1.261       .  A
O36         Al40   1.789       .  S
O37          C38   1.259       .  A
C38        C2299   1.475       .  S
C39        C2245   1.466       .  S
C42        C2314   1.471       .  S
C43          O44   1.265       .  A
C43        C2386   1.469       .  S
O45          C60   1.261       .  A
O45         Al53   1.894       .  S
C46          O56   1.258       .  A
C46          O47   1.265       .  A
C46        C2209   1.459       .  S
O47         Al49   1.929       .  S
O48          C50   1.255       .  A
O48         Al49   1.875       .  S
Al49         O57   1.893       .  S
Al49         O59   1.929       .  S
Al49         O58   1.782       .  S
C50          O63   1.266       .  A
C50        C2155   1.475       .  S
O51          C61   1.261       .  A
O51         Al53   1.921       .  S
O52          C65   1.259       .  A
O52         Al62   1.875       .  S
Al53         O66   1.961       .  S
Al53         O63   1.949       .  S
Al53         O58   1.785       .  S
O54          C61   1.260       .  A
O54         Al62   1.914       .  S
O55          C64   1.261       .  A
O55         Al62   1.918       .  S
O56         Al62   1.882       .  S
O57          C64   1.258       .  A
O58         Al62   1.776       .  S
O59          C60   1.266       .  A
C60        C2188   1.474       .  S
C61        C2224   1.470       .  S
C64        C2350   1.467       .  S
C65          O66   1.272       .  A
C65        C2173   1.476       .  S
O67          C82   1.272       .  A
O67         Al75   1.952       .  S
C68          O78   1.266       .  A
C68          O69   1.260       .  A
C68        C2098   1.464       .  S
O69         Al71   1.883       .  S
O70          C72   1.258       .  A
O70         Al71   1.905       .  S
Al71         O79   1.918       .  S
Al71         O81   1.875       .  S
Al71         O80   1.773       .  S
C72          O85   1.257       .  A
C72        C2116   1.462       .  S
O73          C83   1.267       .  A
O73         Al75   1.948       .  S
O74          C87   1.265       .  A
O74         Al84   1.933       .  S
Al75         O88   1.878       .  S
Al75         O85   1.909       .  S
Al75         O80   1.785       .  S
O76          C83   1.255       .  A
O76         Al84   1.866       .  S
O77          C86   1.260       .  A
O77         Al84   1.905       .  S
O78         Al84   1.937       .  S
O79          C86   1.263       .  A
O80         Al84   1.784       .  S
O81          C82   1.261       .  A
C82        C2134   1.471       .  S
C83        C2080   1.470       .  S
C86        C2296   1.473       .  S
C87          O88   1.257       .  A
C87        C2191   1.472       .  S
O89         C104   1.261       .  A
O89         Al97   1.890       .  S
C90         O100   1.260       .  A
C90          O91   1.265       .  A
C90        C2047   1.462       .  S
O91         Al93   1.927       .  S
O92          C94   1.256       .  A
O92         Al93   1.880       .  S
Al93        O101   1.901       .  S
Al93        O103   1.924       .  S
Al93        O102   1.785       .  S
C94         O107   1.265       .  A
C94        C1993   1.477       .  S
O95         C105   1.262       .  A
O95         Al97   1.923       .  S
O96         C109   1.262       .  A
O96        Al106   1.885       .  S
Al97        O110   1.960       .  S
Al97        O107   1.947       .  S
Al97        O102   1.787       .  S
O98         C105   1.259       .  A
O98        Al106   1.904       .  S
O99         C108   1.261       .  A
O99        Al106   1.914       .  S
O100       Al106   1.889       .  S
O101        C108   1.258       .  A
O102       Al106   1.774       .  S
O103        C104   1.265       .  A
C104       C2026   1.472       .  S
C105       C2065   1.466       .  S
C108       C2170   1.472       .  S
C109        O110   1.271       .  A
C109       C2008   1.478       .  S
O111        C126   1.272       .  A
O111       Al119   1.963       .  S
C112        O122   1.269       .  A
C112        O113   1.259       .  A
C112       C1939   1.465       .  S
O113       Al115   1.865       .  S
O114        C116   1.260       .  A
O114       Al115   1.909       .  S
Al115       O123   1.905       .  S
Al115       O125   1.873       .  S
Al115       O124   1.772       .  S
C116        O129   1.261       .  A
C116       C1954   1.462       .  S
O117        C127   1.264       .  A
O117       Al119   1.942       .  S
O118        C131   1.269       .  A
O118       Al128   1.939       .  S
Al119       O132   1.875       .  S
Al119       O129   1.916       .  S
Al119       O124   1.784       .  S
O120        C127   1.254       .  A
O120       Al128   1.875       .  S
O121        C130   1.256       .  A
O121       Al128   1.897       .  S
O122       Al128   1.944       .  S
O123        C130   1.258       .  A
O124       Al128   1.782       .  S
O125        C126   1.260       .  A
C126       C1975   1.473       .  S
C127       C1918   1.473       .  S
C130       C2137   1.467       .  S
C131        O132   1.260       .  A
C131       C2029   1.471       .  S
O133        C148   1.263       .  A
O133       Al141   1.899       .  S
C134        O144   1.260       .  A
C134        O135   1.264       .  A
C134       C1900   1.459       .  S
O135       Al137   1.923       .  S
O136        C138   1.255       .  A
O136       Al137   1.882       .  S
Al137       O145   1.899       .  S
Al137       O147   1.932       .  S
Al137       O146   1.786       .  S
C138        O151   1.265       .  A
C138       C1849   1.476       .  S
O139        C149   1.263       .  A
O139       Al141   1.931       .  S
O140        C153   1.261       .  A
O140       Al150   1.885       .  S
Al141       O154   1.953       .  S
Al141       O151   1.943       .  S
Al141       O146   1.786       .  S
O142        C149   1.260       .  A
O142       Al150   1.912       .  S
O143        C152   1.262       .  A
O143       Al150   1.921       .  S
O144       Al150   1.886       .  S
O145        C152   1.259       .  A
O146       Al150   1.777       .  S
O147        C148   1.266       .  A
C148       C1864   1.480       .  S
C149       C1882   1.475       .  S
C152       C2011   1.473       .  S
C153        O154   1.271       .  A
C153       C2371   1.477       .  S
O155        C170   1.268       .  A
O155       Al163   1.942       .  S
C156        O166   1.266       .  A
C156        O157   1.258       .  A
C156       C1828   1.464       .  S
O157       Al159   1.870       .  S
O158        C160   1.263       .  A
O158       Al159   1.926       .  S
Al159       O167   1.922       .  S
Al159       O169   1.887       .  S
Al159       O168   1.778       .  S
C160        O173   1.262       .  A
C160       C1810   1.468       .  S
O161        C171   1.262       .  A
O161       Al163   1.939       .  S
O162        C175   1.269       .  A
O162       Al172   1.943       .  S
Al163       O176   1.886       .  S
Al163       O173   1.912       .  S
Al163       O168   1.787       .  S
O164        C171   1.254       .  A
O164       Al172   1.878       .  S
O165        C174   1.256       .  A
O165       Al172   1.890       .  S
O166       Al172   1.936       .  S
O167        C174   1.262       .  A
O168       Al172   1.785       .  S
O169        C170   1.260       .  A
C170       C2317   1.472       .  S
C171       C1795   1.475       .  S
C174       C1972   1.472       .  S
C175        O176   1.262       .  A
C175       C1867   1.478       .  S
O177        C192   1.260       .  A
O177       Al185   1.898       .  S
C178        O188   1.256       .  A
C178        O179   1.262       .  A
C178       C2044   1.462       .  S
O179       Al181   1.929       .  S
O180        C182   1.257       .  A
O180       Al181   1.875       .  S
Al181       O189   1.895       .  S
Al181       O191   1.915       .  S
Al181       O190   1.786       .  S
C182        O195   1.268       .  A
C182       C1720   1.478       .  S
O183        C193   1.261       .  A
O183       Al185   1.916       .  S
O184        C197   1.257       .  A
O184       Al194   1.868       .  S
Al185       O198   1.950       .  S
Al185       O195   1.956       .  S
Al185       O190   1.797       .  S
O186        C193   1.260       .  A
O186       Al194   1.909       .  S
O187        C196   1.263       .  A
O187       Al194   1.924       .  S
O188       Al194   1.882       .  S
O189        C196   1.259       .  A
O190       Al194   1.777       .  S
O191        C192   1.263       .  A
C192       C1774   1.473       .  S
C193       C2227   1.472       .  S
C196       C1756   1.472       .  S
C197        O198   1.269       .  A
C197       C1738   1.472       .  S
O199        C214   1.262       .  A
O199       Al207   1.916       .  S
C200        O210   1.259       .  A
C200        O201   1.258       .  A
C200       C1936   1.458       .  S
O201       Al203   1.899       .  S
O202        C204   1.258       .  A
O202       Al203   1.886       .  S
Al203       O211   1.894       .  S
Al203       O213   1.897       .  S
Al203       O212   1.784       .  S
C204        O217   1.264       .  A
C204       C2119   1.472       .  S
O205        C215   1.261       .  A
O205       Al207   1.922       .  S
O206        C219   1.261       .  A
O206       Al216   1.889       .  S
Al207       O220   1.927       .  S
Al207       O217   1.931       .  S
Al207       O212   1.799       .  S
O208        C215   1.257       .  A
O208       Al216   1.892       .  S
O209        C218   1.261       .  A
O209       Al216   1.919       .  S
O210       Al216   1.909       .  S
O211        C218   1.259       .  A
O212       Al216   1.792       .  S
O213        C214   1.258       .  A
C214       C1684   1.476       .  S
C215       C1669   1.471       .  S
C218       C1705   1.472       .  S
C219        O220   1.266       .  A
C219       C1777   1.473       .  S
O221        C236   1.259       .  A
O221       Al229   1.887       .  S
C222        O232   1.258       .  A
C222        O223   1.265       .  A
C222       C2206   1.457       .  S
O223       Al225   1.928       .  S
O224        C226   1.255       .  A
O224       Al225   1.869       .  S
Al225       O233   1.891       .  S
Al225       O235   1.914       .  S
Al225       O234   1.782       .  S
C226        O239   1.268       .  A
C226       C1612   1.475       .  S
O227        C237   1.259       .  A
O227       Al229   1.914       .  S
O228        C241   1.260       .  A
O228       Al238   1.875       .  S
Al229       O242   1.964       .  S
Al229       O239   1.952       .  S
Al229       O234   1.786       .  S
O230        C237   1.259       .  A
O230       Al238   1.912       .  S
O231        C240   1.263       .  A
O231       Al238   1.922       .  S
O232       Al238   1.884       .  S
O233        C240   1.256       .  A
O234       Al238   1.774       .  S
O235        C236   1.263       .  A
C236       C1648   1.466       .  S
C237       C2404   1.466       .  S
C240       C1741   1.468       .  S
C241        O242   1.274       .  A
C241       C1630   1.478       .  S
O243        C258   1.265       .  A
O243       Al251   1.917       .  S
C244        O254   1.257       .  A
C244        O245   1.259       .  A
C244       C2101   1.458       .  S
O245       Al247   1.903       .  S
O246        C248   1.259       .  A
O246       Al247   1.899       .  S
Al247       O255   1.899       .  S
Al247       O257   1.904       .  S
Al247       O256   1.775       .  S
C248        O261   1.262       .  A
C248       C2263   1.469       .  S
O249        C259   1.262       .  A
O249       Al251   1.910       .  S
O250        C263   1.258       .  A
O250       Al260   1.884       .  S
Al251       O264   1.922       .  S
Al251       O261   1.927       .  S
Al251       O256   1.795       .  S
O252        C259   1.262       .  A
O252       Al260   1.913       .  S
O253        C262   1.264       .  A
O253       Al260   1.931       .  S
O254       Al260   1.899       .  S
O255        C262   1.260       .  A
O256       Al260   1.789       .  S
O257        C258   1.263       .  A
C258       C1594   1.475       .  S
C259       C1576   1.466       .  S
C262       C1687   1.479       .  S
C263        O264   1.263       .  A
C263       C1651   1.467       .  S
O265        C280   1.260       .  A
O265       Al273   1.890       .  S
C266        O276   1.258       .  A
C266        O267   1.264       .  A
C266       C2425   1.457       .  S
O267       Al269   1.923       .  S
O268        C270   1.256       .  A
O268       Al269   1.879       .  S
Al269       O277   1.905       .  S
Al269       O279   1.916       .  S
Al269       O278   1.785       .  S
C270        O283   1.266       .  A
C270       C1522   1.476       .  S
O271        C281   1.263       .  A
O271       Al273   1.929       .  S
O272        C285   1.260       .  A
O272       Al282   1.876       .  S
Al273       O286   1.951       .  S
Al273       O283   1.949       .  S
Al273       O278   1.792       .  S
O274        C281   1.257       .  A
O274       Al282   1.899       .  S
O275        C284   1.260       .  A
O275       Al282   1.917       .  S
O276       Al282   1.885       .  S
O277        C284   1.259       .  A
O278       Al282   1.775       .  S
O279        C280   1.264       .  A
C280       C1558   1.469       .  S
C281       C1885   1.474       .  S
C284       C1633   1.474       .  S
C285        O286   1.271       .  A
C285       C1543   1.473       .  S
O287        C302   1.269       .  A
O287       Al295   1.945       .  S
C288        O298   1.268       .  A
C288        O289   1.259       .  A
C288       C2278   1.464       .  S
O289       Al291   1.869       .  S
O290        C292   1.260       .  A
O290       Al291   1.918       .  S
Al291       O299   1.911       .  S
Al291       O301   1.881       .  S
Al291       O300   1.778       .  S
C292        O305   1.260       .  A
C292       C1813   1.466       .  S
O293        C303   1.263       .  A
O293       Al295   1.939       .  S
O294        C307   1.267       .  A
O294       Al304   1.927       .  S
Al295       O308   1.885       .  S
Al295       O305   1.909       .  S
Al295       O300   1.791       .  S
O296        C303   1.257       .  A
O296       Al304   1.890       .  S
O297        C306   1.259       .  A
O297       Al304   1.912       .  S
O298       Al304   1.939       .  S
O299        C306   1.258       .  A
O300       Al304   1.786       .  S
O301        C302   1.260       .  A
C302       C1507   1.469       .  S
C303       C1486   1.481       .  S
C306       C1597   1.478       .  S
C307        O308   1.259       .  A
C307       C1561   1.471       .  S
O309        C324   1.259       .  A
O309       Al317   1.891       .  S
C310        O320   1.258       .  A
C310        O311   1.264       .  A
C310       C1903   1.460       .  S
O311       Al313   1.930       .  S
O312        C314   1.256       .  A
O312       Al313   1.871       .  S
Al313       O321   1.900       .  S
Al313       O323   1.912       .  S
Al313       O322   1.786       .  S
C314        O327   1.268       .  A
C314       C1450   1.483       .  S
O315        C325   1.258       .  A
O315       Al317   1.909       .  S
O316        C329   1.259       .  A
O316       Al326   1.875       .  S
Al317       O330   1.958       .  S
Al317       O327   1.960       .  S
Al317       O322   1.796       .  S
O318        C325   1.256       .  A
O318       Al326   1.897       .  S
O319        C328   1.260       .  A
O319       Al326   1.912       .  S
O320       Al326   1.883       .  S
O321        C328   1.257       .  A
O322       Al326   1.780       .  S
O323        C324   1.262       .  A
C324       C1471   1.470       .  S
C325       C2062   1.465       .  S
C328       C1540   1.470       .  S
C329        O330   1.273       .  A
C329       C1759   1.477       .  S
O331        C346   1.260       .  A
O331       Al339   1.912       .  S
C332        O342   1.258       .  A
C332        O333   1.261       .  A
C332       C1831   1.453       .  S
O333       Al335   1.909       .  S
O334        C336   1.259       .  A
O334       Al335   1.881       .  S
Al335       O343   1.896       .  S
Al335       O345   1.894       .  S
Al335       O344   1.781       .  S
C336        O349   1.267       .  A
C336       C1957   1.473       .  S
O337        C347   1.259       .  A
O337       Al339   1.918       .  S
O338        C351   1.260       .  A
O338       Al348   1.871       .  S
Al339       O352   1.940       .  S
Al339       O349   1.941       .  S
Al339       O344   1.791       .  S
O340        C347   1.254       .  A
O340       Al348   1.894       .  S
O341        C350   1.261       .  A
O341       Al348   1.920       .  S
O342       Al348   1.897       .  S
O343        C350   1.259       .  A
O344       Al348   1.790       .  S
O345        C346   1.256       .  A
C346       C1702   1.473       .  S
C347       C1432   1.468       .  S
C350       C1504   1.467       .  S
C351        O352   1.270       .  A
C351       C1468   1.469       .  S
O353        C368   1.259       .  A
O353       Al361   1.891       .  S
C354        O364   1.257       .  A
C354        O355   1.264       .  A
C354       C1414   1.461       .  S
O355       Al357   1.932       .  S
O356        C358   1.256       .  A
O356       Al357   1.869       .  S
Al357       O365   1.896       .  S
Al357       O367   1.919       .  S
Al357       O366   1.787       .  S
C358        O371   1.267       .  A
C358       C1666   1.478       .  S
O359        C369   1.260       .  A
O359       Al361   1.910       .  S
O360        C373   1.260       .  A
O360       Al370   1.880       .  S
Al361       O374   1.949       .  S
Al361       O371   1.955       .  S
Al361       O366   1.791       .  S
O362        C369   1.259       .  A
O362       Al370   1.908       .  S
O363        C372   1.262       .  A
O363       Al370   1.918       .  S
O364       Al370   1.880       .  S
O365        C372   1.258       .  A
O366       Al370   1.776       .  S
O367        C368   1.264       .  A
C368       C1378   1.470       .  S
C369       C1399   1.466       .  S
C372       C1360   1.470       .  S
C373        O374   1.270       .  A
C373       C1345   1.475   1_655  S
O375        C390   1.270       .  A
O375       Al383   1.952       .  S
C376        O386   1.268       .  A
C376        O377   1.260       .  A
C376       C1270   1.470       .  S
O377       Al379   1.879       .  S
O378        C380   1.260       .  A
O378       Al379   1.911       .  S
Al379       O387   1.906       .  S
Al379       O389   1.888       .  S
Al379       O388   1.776       .  S
C380        O393   1.259       .  A
C380       C1288   1.461       .  S
O381        C391   1.262       .  A
O381       Al383   1.941       .  S
O382        C395   1.269       .  A
O382       Al392   1.938       .  S
Al383       O396   1.869       .  S
Al383       O393   1.910       .  S
Al383       O388   1.791       .  S
O384        C391   1.253       .  A
O384       Al392   1.874       .  S
O385        C394   1.257       .  A
O385       Al392   1.899       .  S
O386       Al392   1.942       .  S
O387        C394   1.258       .  A
O388       Al392   1.785       .  S
O389        C390   1.261       .  A
C390       C1306   1.476   1_655  S
C391       C1723   1.474       .  S
C394       C1327   1.470       .  S
C395        O396   1.258       .  A
C395       C1381   1.469       .  S
O397        C412   1.260       .  A
O397       Al405   1.891       .  S
C398        O408   1.257       .  A
C398        O399   1.264       .  A
C398       C1255   1.458       .  S
O399       Al401   1.926       .  S
O400        C402   1.256       .  A
O400       Al401   1.876       .  S
Al401       O409   1.897       .  S
Al401       O411   1.912       .  S
Al401       O410   1.784       .  S
C402        O415   1.268       .  A
C402       C1489   1.481       .  S
O403        C413   1.261       .  A
O403       Al405   1.916       .  S
O404        C417   1.259       .  A
O404       Al414   1.870       .  S
Al405       O418   1.958       .  S
Al405       O415   1.958       .  S
Al405       O410   1.796       .  S
O406        C413   1.258       .  A
O406       Al414   1.904       .  S
O407        C416   1.261       .  A
O407       Al414   1.923       .  S
O408       Al414   1.880       .  S
O409        C416   1.257       .  A
O410       Al414   1.777       .  S
O411        C412   1.263       .  A
C412       C1216   1.468       .  S
C413       C1237   1.467       .  S
C416       C1201   1.474       .  S
C417        O418   1.271       .  A
C417       C1180   1.476       .  S
O419        C434   1.261       .  A
O419       Al427   1.915       .  S
C420        O430   1.259       .  A
C420        O421   1.259       .  A
C420       C1129   1.455       .  S
O421       Al423   1.901       .  S
O422        C424   1.260       .  A
O422       Al423   1.890       .  S
Al423       O431   1.896       .  S
Al423       O433   1.897       .  S
Al423       O432   1.775       .  S
C424        O437   1.268       .  A
C424       C1108   1.473       .  S
O425        C435   1.261       .  A
O425       Al427   1.914       .  S
O426        C439   1.260       .  A
O426       Al436   1.879       .  S
Al427       O440   1.932       .  S
Al427       O437   1.941       .  S
Al427       O432   1.789       .  S
O428        C435   1.258       .  A
O428       Al436   1.901       .  S
O429        C438   1.263       .  A
O429       Al436   1.924       .  S
O430       Al436   1.908       .  S
O431        C438   1.261       .  A
O432       Al436   1.786       .  S
O433        C434   1.258       .  A
C434       C1147   1.474       .  S
C435       C1525   1.468       .  S
C438       C1165   1.468       .  S
C439        O440   1.267       .  A
C439       C1219   1.469       .  S
O441        C456   1.259       .  A
O441       Al449   1.887       .  S
C442        O452   1.257       .  A
C442        O443   1.259       .  A
C442       C1075   1.455       .  S
O443       Al445   1.912       .  S
O444        C446   1.257       .  A
O444       Al445   1.882       .  S
Al445       O453   1.899       .  S
Al445       O455   1.918       .  S
Al445       O454   1.788       .  S
C446        O459   1.266       .  A
C446       C1579   1.471       .  S
O447        C457   1.260       .  A
O447       Al449   1.906       .  S
O448        C461   1.259       .  A
O448       Al458   1.884       .  S
Al449       O462   1.932       .  S
Al449       O459   1.944       .  S
Al449       O454   1.792       .  S
O450        C457   1.260       .  A
O450       Al458   1.907       .  S
O451        C460   1.264       .  A
O451       Al458   1.923       .  S
O452       Al458   1.889       .  S
O453        C460   1.261       .  A
O454       Al458   1.777       .  S
O455        C456   1.263       .  A
C456       C1054   1.467       .  S
C457       C1093   1.463       .  S
C460       C1183   1.473       .  S
C461        O462   1.266       .  A
C461       C1363   1.471       .  S
O463        C478   1.272       .  A
O463       Al471   1.947       .  S
C464        O474   1.266       .  A
C464        O465   1.263       .  A
C464       C1018   1.457       .  S
O465       Al467   1.896       .  S
O466        C468   1.256       .  A
O466       Al467   1.903       .  S
Al467       O475   1.911       .  S
Al467       O477   1.888       .  S
Al467       O476   1.777       .  S
C468        O481   1.260       .  A
C468       C1036   1.469       .  S
O469        C479   1.265       .  A
O469       Al471   1.944       .  S
O470        C483   1.262       .  A
O470       Al480   1.913       .  S
Al471       O484   1.882       .  S
Al471       O481   1.924       .  S
Al471       O476   1.788       .  S
O472        C479   1.256       .  A
O472       Al480   1.877       .  S
O473        C482   1.259       .  A
O473       Al480   1.913       .  S
O474       Al480   1.916       .  S
O475        C482   1.259       .  A
O476       Al480   1.787       .  S
O477        C478   1.264       .  A
C478       C1324   1.472       .  S
C479       C1615   1.478       .  S
C482       C1144   1.477       .  S
C483        O484   1.257       .  A
C483       C1057   1.467       .  S
O485        C500   1.262       .  A
O485       Al493   1.891       .  S
C486        O496   1.259       .  A
C486        O487   1.266       .  A
C486       C1003   1.463       .  S
O487       Al489   1.932       .  S
O488        C490   1.255       .  A
O488       Al489   1.880       .  S
Al489       O497   1.898       .  S
Al489       O499   1.930       .  S
Al489       O498   1.783       .  S
C490        O503   1.265       .  A
C490       C1435   1.475       .  S
O491        C501   1.262       .  A
O491       Al493   1.925       .  S
O492        C505   1.260       .  A
O492       Al502   1.883       .  S
Al493       O506   1.958       .  S
Al493       O503   1.946       .  S
Al493       O498   1.785       .  S
O494        C501   1.259       .  A
O494       Al502   1.904       .  S
O495        C504   1.260       .  A
O495       Al502   1.913       .  S
O496       Al502   1.887       .  S
O497        C504   1.257       .  A
O498       Al502   1.777       .  S
O499        C500   1.267       .  A
C500        C964   1.475       .  S
C501        C982   1.468       .  S
C504       C1342   1.469       .  S
C505        O506   1.272       .  A
C505       C1198   1.477   1_545  S
O507        C522   1.268       .  A
O507       Al515   1.942       .  S
C508        O518   1.265       .  A
C508        O509   1.257       .  A
C508        C946   1.460       .  S
O509       Al511   1.876       .  S
O510        C512   1.260       .  A
O510       Al511   1.906       .  S
Al511       O519   1.910       .  S
Al511       O521   1.879       .  S
Al511       O520   1.780       .  S
C512        O525   1.264       .  A
C512        C931   1.473       .  S
O513        C523   1.264       .  A
O513       Al515   1.945       .  S
O514        C527   1.267       .  A
O514       Al524   1.932       .  S
Al515       O528   1.892       .  S
Al515       O525   1.925       .  S
Al515       O520   1.792       .  S
O516        C523   1.256       .  A
O516       Al524   1.886       .  S
O517        C526   1.257       .  A
O517       Al524   1.901       .  S
O518       Al524   1.928       .  S
O519        C526   1.259       .  A
O520       Al524   1.786       .  S
O521        C522   1.258       .  A
C522       C1162   1.469   1_545  S
C523       C1453   1.482       .  S
C526       C1309   1.473       .  S
C527        O528   1.262       .  A
C527        C967   1.477       .  S
O529        C544   1.260       .  A
O529       Al537   1.919       .  S
C530        O540   1.258       .  A
C530        O531   1.258       .  A
C530       C1273   1.460       .  S
O531       Al533   1.901       .  S
O532        C534   1.260       .  A
O532       Al533   1.888       .  S
Al533       O541   1.889       .  S
Al533       O543   1.897       .  S
Al533       O542   1.780       .  S
C534        O547   1.267       .  A
C534       C1039   1.474       .  S
O535        C545   1.261       .  A
O535       Al537   1.917       .  S
O536        C549   1.261       .  A
O536       Al546   1.888       .  S
Al537       O550   1.918       .  S
Al537       O547   1.938       .  S
Al537       O542   1.794       .  S
O538        C545   1.258       .  A
O538       Al546   1.902       .  S
O539        C548   1.266       .  A
O539       Al546   1.940       .  S
O540       Al546   1.909       .  S
O541        C548   1.260       .  A
O542       Al546   1.791       .  S
O543        C544   1.258       .  A
C544        C874   1.477   1_545  S
C545       C1990   1.472       .  S
C548        C892   1.476       .  S
C549        O550   1.265       .  A
C549        C910   1.468       .  S
O551        C566   1.260       .  A
O551       Al559   1.892       .  S
C552        O562   1.256       .  A
C552        O553   1.262       .  A
C552       C1417   1.455       .  S
O553       Al555   1.919       .  S
O554        C556   1.256       .  A
O554       Al555   1.872       .  S
Al555       O563   1.899       .  S
Al555       O565   1.909       .  S
Al555       O564   1.785       .  S
C556        O569   1.267       .  A
C556       C1921   1.473       .  S
O557        C567   1.260       .  A
O557       Al559   1.911       .  S
O558        C571   1.258       .  A
O558       Al568   1.872       .  S
Al559       O572   1.951       .  S
Al559       O569   1.951       .  S
Al559       O564   1.792       .  S
O560        C567   1.257       .  A
O560       Al568   1.902       .  S
O561        C570   1.261       .  A
O561       Al568   1.911       .  S
O562       Al568   1.881       .  S
O563        C570   1.259       .  A
O564       Al568   1.775       .  S
O565        C566   1.263       .  A
C566        C913   1.466       .  S
C567       C1090   1.463       .  S
C570        C856   1.468       .  S
C571        O572   1.270       .  A
C571        C838   1.472   1_545  S
O573        C588   1.271       .  A
O573       Al581   1.953       .  S
C574        O584   1.264       .  A
C574        O575   1.261       .  A
C574       C1021   1.461       .  S
O575       Al577   1.892       .  S
O576        C578   1.257       .  A
O576       Al577   1.906       .  S
Al577       O585   1.913       .  S
Al577       O587   1.877       .  S
Al577       O586   1.774       .  S
C578        O591   1.261       .  A
C578       C1111   1.467       .  S
O579        C589   1.266       .  A
O579       Al581   1.947       .  S
O580        C593   1.262       .  A
O580       Al590   1.908       .  S
Al581       O594   1.887       .  S
Al581       O591   1.919       .  S
Al581       O586   1.791       .  S
O582        C589   1.256       .  A
O582       Al590   1.871       .  S
O583        C592   1.259       .  A
O583       Al590   1.905       .  S
O584       Al590   1.923       .  S
O585        C592   1.260       .  A
O586       Al590   1.785       .  S
O587        C588   1.261       .  A
C588        C802   1.473   1_655  S
C589       C2152   1.474       .  S
C592        C877   1.473       .  S
C593        O594   1.259       .  A
C593        C820   1.465       .  S
O595        C610   1.258       .  A
O595       Al603   1.873       .  S
C596        O606   1.261       .  A
C596        O597   1.265       .  A
C596       C1072   1.461       .  S
O597       Al599   1.925       .  S
O598        C600   1.254       .  A
O598       Al599   1.871       .  S
Al599       O607   1.893       .  S
Al599       O609   1.918       .  S
Al599       O608   1.782       .  S
C600        O613   1.264       .  A
C600       C2083   1.469       .  S
O601        C611   1.259       .  A
O601       Al603   1.913       .  S
O602        C615   1.260       .  A
O602       Al612   1.877       .  S
Al603       O616   1.956       .  S
Al603       O613   1.942       .  S
Al603       O608   1.788       .  S
O604        C611   1.260       .  A
O604       Al612   1.912       .  S
O605        C614   1.260       .  A
O605       Al612   1.913       .  S
O606       Al612   1.888       .  S
O607        C614   1.257       .  A
O608       Al612   1.775       .  S
O609        C610   1.264       .  A
C610        C823   1.462       .  S
C611       C1234   1.465       .  S
C614        C841   1.467       .  S
C615        O616   1.272       .  A
C615        C784   1.474   1_655  S
O617        C632   1.272       .  A
O617       Al625   1.957       .  S
C618        O628   1.268       .  A
C618        O619   1.259       .  A
C618       C1126   1.463       .  S
O619       Al621   1.868       .  S
O620        C622   1.261       .  A
O620       Al621   1.912       .  S
Al621       O629   1.908       .  S
Al621       O631   1.891       .  S
Al621       O630   1.777       .  S
C622        O635   1.265       .  A
C622        C928   1.476       .  S
O623        C633   1.262       .  A
O623       Al625   1.941       .  S
O624        C637   1.269       .  A
O624       Al634   1.935       .  S
Al625       O638   1.888       .  S
Al625       O635   1.937       .  S
Al625       O630   1.786       .  S
O626        C633   1.253       .  A
O626       Al634   1.875       .  S
O627        C636   1.255       .  A
O627       Al634   1.893       .  S
O628       Al634   1.939       .  S
O629        C636   1.258       .  A
O630       Al634   1.786       .  S
O631        C632   1.262       .  A
C632        C748   1.479       .  S
C633       C2332   1.473       .  S
C636        C805   1.467       .  S
C637        O638   1.263       .  A
C637        C766   1.475       .  S
O639        C654   1.261       .  A
O639       Al647   1.894       .  S
C640        O650   1.255       .  A
C640        O641   1.263       .  A
C640       C1252   1.458       .  S
O641       Al643   1.929       .  S
O642        C644   1.256       .  A
O642       Al643   1.878       .  S
Al643       O651   1.901       .  S
Al643       O653   1.920       .  S
Al643       O652   1.790       .  S
C644        O657   1.266       .  A
C644       C2242   1.474       .  S
O645        C655   1.261       .  A
O645       Al647   1.923       .  S
O646        C659   1.259       .  A
O646       Al656   1.878       .  S
Al647       O660   1.953       .  S
Al647       O657   1.946       .  S
Al647       O652   1.793       .  S
O648        C655   1.258       .  A
O648       Al656   1.899       .  S
O649        C658   1.261       .  A
O649       Al656   1.915       .  S
O650       Al656   1.876       .  S
O651        C658   1.259       .  A
O652       Al656   1.776       .  S
O653        C654   1.264       .  A
C654        C769   1.473       .  S
C655        C985   1.471       .  S
C658        C787   1.472       .  S
C659        O660   1.271       .  A
C659        C730   1.477       .  S
O661        C676   1.260       .  A
O661       Al669   1.904       .  S
C662        O672   1.257       .  A
C662        O663   1.262       .  A
C662        C949   1.455       .  S
O663       Al665   1.912       .  S
O664        C666   1.258       .  A
O664       Al665   1.881       .  S
Al665       O673   1.905       .  S
Al665       O675   1.904       .  S
Al665       O674   1.783       .  S
C666        O679   1.264       .  A
C666       C1291   1.468       .  S
O667        C677   1.258       .  A
O667       Al669   1.913       .  S
O668        C681   1.261       .  A
O668       Al678   1.880       .  S
Al669       O682   1.932       .  S
Al669       O679   1.928       .  S
Al669       O674   1.798       .  S
O670        C677   1.258       .  A
O670       Al678   1.904       .  S
O671        C680   1.264       .  A
O671       Al678   1.935       .  S
O672       Al678   1.894       .  S
O673        C680   1.260       .  A
O674       Al678   1.789       .  S
O675        C676   1.259       .  A
C676        C895   1.473       .  S
C677       C1846   1.471       .  S
C680        C751   1.481       .  S
C681        O682   1.268       .  A
C681        C715   1.471       .  S
O683        C698   1.260       .  A
O683       Al691   1.892       .  S
C684        O694   1.259       .  A
C684        O685   1.263       .  A
C684       C1000   1.459       .  S
O685       Al687   1.925       .  S
O686        C688   1.258       .  A
O686       Al687   1.889       .  S
Al687       O695   1.903       .  S
Al687       O697   1.922       .  S
Al687       O696   1.783       .  S
C688        O701   1.265       .  A
C688       C1792   1.477       .  S
O689        C699   1.259       .  A
O689       Al691   1.911       .  S
O690        C703   1.259       .  A
O690       Al700   1.874       .  S
Al691       O704   1.952       .  S
Al691       O701   1.943       .  S
Al691       O696   1.789       .  S
O692        C699   1.259       .  A
O692       Al700   1.911       .  S
O693        C702   1.262       .  A
O693       Al700   1.919       .  S
O694       Al700   1.887       .  S
O695        C702   1.261       .  A
O696       Al700   1.777       .  S
O697        C698   1.265       .  A
C698        C712   1.472       .  S
C699       C1396   1.465       .  S
C702        C733   1.472       .  S
C703        O704   1.270       .  A
C703        C859   1.473   1_455  S
C705        C710   1.385       .  A
C705        C706   1.401       .  A
C705        N711   1.342       .  A
C706        C707   1.400   1_556  A
C706        H717   1.082       .  S
C707        C716   1.374       .  A
C707        C708   1.385       .  A
C708        C709   1.406   1_554  A
C708        N714   1.347       .  A
C709        C710   1.406       .  A
C709        H718   1.082   1_556  S
C710        C713   1.381       .  A
N711        C712   1.354       .  A
N711        H721   1.045       .  S
C712        C713   1.397       .  A
C713        H719   1.082       .  S
N714        C715   1.357       .  A
N714        H722   1.045       .  S
C715        C716   1.393       .  A
C716        H720   1.083       .  S
C723        C728   1.384       .  A
C723        C724   1.404       .  A
C723        N729   1.342   1_545  A
C724        C725   1.402       .  A
C724        H735   1.082       .  S
C725        C734   1.379       .  A
C725        C726   1.384       .  A
C726        C727   1.408       .  A
C726        N732   1.346       .  A
C727        C728   1.406       .  A
C727        H736   1.082       .  S
C728        C731   1.385       .  A
N729        C730   1.357       .  A
N729        H739   1.045       .  S
C730        C731   1.397   1_565  A
C731        H737   1.082       .  S
N732        C733   1.356       .  A
N732        H740   1.045       .  S
C733        C734   1.395       .  A
C734        H738   1.083       .  S
C741        C746   1.384       .  A
C741        C742   1.406       .  A
C741        N747   1.347       .  A
C742        C743   1.406       .  A
C742        H753   1.082       .  S
C743        C752   1.382       .  A
C743        C744   1.384       .  A
C744        C745   1.407       .  A
C744        N750   1.347       .  A
C745        C746   1.406       .  A
C745        H754   1.082       .  S
C746        C749   1.381   1_545  A
N747        C748   1.357   1_545  A
N747        H757   1.045       .  S
C748        C749   1.398       .  A
C749        H755   1.083       .  S
N750        C751   1.357       .  A
N750        H758   1.045       .  S
C751        C752   1.398       .  A
C752        H756   1.082       .  S
C759        C764   1.384       .  A
C759        C760   1.403   1_554  A
C759        N765   1.342       .  A
C760        C761   1.402       .  A
C760        H771   1.082       .  S
C761        C770   1.378       .  A
C761        C762   1.384       .  A
C762        C763   1.406       .  A
C762        N768   1.345       .  A
C763        C764   1.405   1_556  A
C763        H772   1.082       .  S
C764        C767   1.382       .  A
N765        C766   1.356       .  A
N765        H775   1.045       .  S
C766        C767   1.397       .  A
C767        H773   1.082       .  S
N768        C769   1.357       .  A
N768        H776   1.045       .  S
C769        C770   1.395       .  A
C770        H774   1.082       .  S
C777        C782   1.384       .  A
C777        C778   1.402       .  A
C777        N783   1.340       .  A
C778        C779   1.400       .  A
C778        H789   1.083       .  S
C779        C788   1.377       .  A
C779        C780   1.384       .  A
C780        C781   1.409       .  A
C780        N786   1.347       .  A
C781        C782   1.407       .  A
C781        H790   1.082       .  S
C782        C785   1.386       .  A
N783        C784   1.355       .  A
N783        H793   1.045   1_455  S
C784        C785   1.398       .  A
C785        H791   1.082       .  S
N786        C787   1.357       .  A
N786        H794   1.045       .  S
C787        C788   1.393       .  A
C788        H792   1.083       .  S
C795        C800   1.384       .  A
C795        C796   1.408       .  A
C795        N801   1.349       .  A
C796        C797   1.408       .  A
C796        H807   1.082       .  S
C797        C806   1.382       .  A
C797        C798   1.385       .  A
C798        C799   1.399       .  A
C798        N804   1.341       .  A
C799        C800   1.399       .  A
C799        H808   1.083       .  S
C800        C803   1.371       .  A
N801        C802   1.358       .  A
N801        H811   1.045       .  S
C802        C803   1.393       .  A
C803        H809   1.083   1_455  S
N804        C805   1.352       .  A
N804        H812   1.045       .  S
C805        C806   1.397       .  A
C806        H810   1.082       .  S
C813        C818   1.385       .  A
C813        C814   1.400   1_554  A
C813        N819   1.341       .  A
C814        C815   1.399       .  A
C814        H825   1.082       .  S
C815        C824   1.372       .  A
C815        C816   1.385       .  A
C816        C817   1.402       .  A
C816        N822   1.343       .  A
C817        C818   1.402   1_556  A
C817        H826   1.082       .  S
C818        C821   1.376       .  A
N819        C820   1.354       .  A
N819        H829   1.045       .  S
C820        C821   1.394       .  A
C821        H827   1.082       .  S
N822        C823   1.354       .  A
N822        H830   1.045       .  S
C823        C824   1.393       .  A
C824        H828   1.083       .  S
C831        C836   1.385       .  A
C831        C832   1.406       .  A
C831        N837   1.348       .  A
C832        C833   1.406       .  A
C832        H843   1.082       .  S
C833        C842   1.380       .  A
C833        C834   1.385       .  A
C834        C835   1.400       .  A
C834        N840   1.342       .  A
C835        C836   1.400       .  A
C835        H844   1.083       .  S
C836        C839   1.372       .  A
N837        C838   1.356       .  A
N837        H847   1.044       .  S
C838        C839   1.395       .  A
C839        H845   1.083   1_565  S
N840        C841   1.354       .  A
N840        H848   1.045       .  S
C841        C842   1.396       .  A
C842        H846   1.082       .  S
C849        C854   1.384       .  A
C849        C850   1.408       .  A
C849        N855   1.347       .  A
C850        C851   1.407       .  A
C850        H861   1.082       .  S
C851        C860   1.385       .  A
C851        C852   1.384       .  A
C852        C853   1.400       .  A
C852        N858   1.339       .  A
C853        C854   1.398       .  A
C853        H862   1.083       .  S
C854        C857   1.374       .  A
N855        C856   1.357       .  A
N855        H865   1.045       .  S
C856        C857   1.392       .  A
C857        H863   1.083       .  S
N858        C859   1.355       .  A
N858        H866   1.045   1_655  S
C859        C860   1.398       .  A
C860        H864   1.082       .  S
C867        C872   1.384       .  A
C867        C868   1.410       .  A
C867        N873   1.350       .  A
C868        C869   1.410       .  A
C868        H879   1.082       .  S
C869        C878   1.386       .  A
C869        C870   1.385       .  A
C870        C871   1.400       .  A
C870        N876   1.341       .  A
C871        C872   1.399       .  A
C871        H880   1.083       .  S
C872        C875   1.372       .  A
N873        C874   1.358       .  A
N873        H883   1.044       .  S
C874        C875   1.394       .  A
C875        H881   1.083   1_565  S
N876        C877   1.354       .  A
N876        H884   1.045       .  S
C877        C878   1.399       .  A
C878        H882   1.082       .  S
C885        C890   1.384       .  A
C885        C886   1.408       .  A
C885        N891   1.348       .  A
C886        C887   1.407       .  A
C886        H897   1.082       .  S
C887        C896   1.383       .  A
C887        C888   1.385       .  A
C888        C889   1.402       .  A
C888        N894   1.342   1_655  A
C889        C890   1.401       .  A
C889        H898   1.083       .  S
C890        C893   1.375       .  A
N891        C892   1.358       .  A
N891        H901   1.045       .  S
C892        C893   1.394       .  A
C893        H899   1.083       .  S
N894        C895   1.355       .  A
N894        H902   1.045       .  S
C895        C896   1.397   1_455  A
C896        H900   1.082       .  S
C903        C908   1.385       .  A
C903        C904   1.401   1_554  A
C903        N909   1.342       .  A
C904        C905   1.400       .  A
C904        H915   1.082       .  S
C905        C914   1.374       .  A
C905        C906   1.385       .  A
C906        C907   1.404       .  A
C906        N912   1.344       .  A
C907        C908   1.403   1_556  A
C907        H916   1.082       .  S
C908        C911   1.378       .  A
N909        C910   1.355       .  A
N909        H919   1.045       .  S
C910        C911   1.395       .  A
C911        H917   1.082       .  S
N912        C913   1.355       .  A
N912        H920   1.045       .  S
C913        C914   1.393       .  A
C914        H918   1.083       .  S
C921        C926   1.384   1_565  A
C921        C922   1.414       .  A
C921        N927   1.354       .  A
C922        C923   1.414   1_565  A
C922        H933   1.082       .  S
C923        C932   1.393       .  A
C923        C924   1.384       .  A
C924        C925   1.398       .  A
C924        N930   1.339       .  A
C925        C926   1.397       .  A
C925        H934   1.083       .  S
C926        C929   1.371   1_545  A
N927        C928   1.360       .  A
N927        H937   1.044       .  S
C928        C929   1.392       .  A
C929        H935   1.083   1_565  S
N930        C931   1.352       .  A
N930        H938   1.045       .  S
C931        C932   1.401       .  A
C932        H936   1.082   1_545  S
C939        C944   1.385       .  A
C939        C940   1.399       .  A
C939        N945   1.339       .  A
C940        C941   1.398       .  A
C940        H951   1.083       .  S
C941        C950   1.373       .  A
C941        C942   1.386       .  A
C942        C943   1.404       .  A
C942        N948   1.343       .  A
C943        C944   1.401       .  A
C943        H952   1.082       .  S
C944        C947   1.379       .  A
N945        C946   1.353       .  A
N945        H955   1.044       .  S
C946        C947   1.392       .  A
C947        H953   1.082       .  S
N948        C949   1.354       .  A
N948        H956   1.045       .  S
C949        C950   1.390       .  A
C950        H954   1.083       .  S
C957        C962   1.384       .  A
C957        C958   1.401       .  A
C957        N963   1.343       .  A
C958        C959   1.401       .  A
C958        H969   1.082       .  S
C959        C968   1.375       .  A
C959        C960   1.384       .  A
C960        C961   1.409       .  A
C960        N966   1.348       .  A
C961        C962   1.408       .  A
C961        H970   1.082       .  S
C962        C965   1.383       .  A
N963        C964   1.355       .  A
N963        H973   1.045       .  S
C964        C965   1.398       .  A
C965        H971   1.082       .  S
N966        C967   1.359       .  A
N966        H974   1.045       .  S
C967        C968   1.394       .  A
C968        H972   1.082       .  S
C975        C980   1.384   1_545  A
C975        C976   1.412       .  A
C975        N981   1.351       .  A
C976        C977   1.412   1_545  A
C976        H987   1.082       .  S
C977        C986   1.391       .  A
C977        C978   1.385       .  A
C978        C979   1.398       .  A
C978        N984   1.337       .  A
C979        C980   1.396       .  A
C979        H988   1.083       .  S
C980        C983   1.371       .  A
N981        C982   1.358       .  A
N981        H991   1.045       .  S
C982        C983   1.390   1_545  A
C983        H989   1.083       .  S
N984        C985   1.352       .  A
N984        H992   1.045       .  S
C985        C986   1.400       .  A
C986        H990   1.082       .  S
C993        C998   1.386       .  A
C993        C994   1.403       .  A
C993        N999   1.343       .  A
C994        C995   1.403       .  A
C994       H1005   1.083       .  S
C995       C1004   1.377       .  A
C995        C996   1.386       .  A
C996        C997   1.400       .  A
C996       N1002   1.342       .  A
C997        C998   1.399       .  A
C997       H1006   1.082       .  S
C998       C1001   1.374       .  A
N999       C1000   1.354       .  A
N999       H1009   1.045       .  S
C1000      C1001   1.390       .  A
C1001      H1007   1.083       .  S
N1002      C1003   1.352       .  A
N1002      H1010   1.045       .  S
C1003      C1004   1.395       .  A
C1004      H1008   1.083       .  S
C1011      C1016   1.386       .  A
C1011      C1012   1.402       .  A
C1011      N1017   1.343       .  A
C1012      C1013   1.402       .  A
C1012      H1023   1.082       .  S
C1013      C1022   1.377       .  A
C1013      C1014   1.386       .  A
C1014      C1015   1.399       .  A
C1014      N1020   1.341       .  A
C1015      C1016   1.398       .  A
C1015      H1024   1.083       .  S
C1016      C1019   1.371       .  A
N1017      C1018   1.354       .  A
N1017      H1027   1.045       .  S
C1018      C1019   1.389       .  A
C1019      H1025   1.083       .  S
N1020      C1021   1.352       .  A
N1020      H1028   1.045       .  S
C1021      C1022   1.393       .  A
C1022      H1026   1.083       .  S
C1029      C1034   1.384   1_565  A
C1029      C1030   1.409       .  A
C1029      N1035   1.349       .  A
C1030      C1031   1.408   1_565  A
C1030      H1041   1.082       .  S
C1031      C1040   1.384       .  A
C1031      C1032   1.384       .  A
C1032      C1033   1.402       .  A
C1032      N1038   1.343       .  A
C1033      C1034   1.402       .  A
C1033      H1042   1.083       .  S
C1034      C1037   1.375   1_545  A
N1035      C1036   1.357       .  A
N1035      H1045   1.045       .  S
C1036      C1037   1.394       .  A
C1037      H1043   1.083   1_565  S
N1038      C1039   1.355       .  A
N1038      H1046   1.045       .  S
C1039      C1040   1.397       .  A
C1040      H1044   1.082   1_545  S
C1047      C1052   1.385       .  A
C1047      C1048   1.403       .  A
C1047      N1053   1.342       .  A
C1048      C1049   1.402       .  A
C1048      H1059   1.082       .  S
C1049      C1058   1.379       .  A
C1049      C1050   1.385       .  A
C1050      C1051   1.402       .  A
C1050      N1056   1.341       .  A
C1051      C1052   1.401       .  A
C1051      H1060   1.082       .  S
C1052      C1055   1.377       .  A
N1053      C1054   1.355       .  A
N1053      H1063   1.045       .  S
C1054      C1055   1.394       .  A
C1055      H1061   1.083       .  S
N1056      C1057   1.355       .  A
N1056      H1064   1.045       .  S
C1057      C1058   1.394       .  A
C1058      H1062   1.082       .  S
C1065      C1070   1.386       .  A
C1065      C1066   1.400       .  A
C1065      N1071   1.341       .  A
C1066      C1067   1.399       .  A
C1066      H1077   1.083       .  S
C1067      C1076   1.374       .  A
C1067      C1068   1.386       .  A
C1068      C1069   1.401       .  A
C1068      N1074   1.341       .  A
C1069      C1070   1.400       .  A
C1069      H1078   1.082       .  S
C1070      C1073   1.376       .  A
N1071      C1072   1.353       .  A
N1071      H1081   1.045       .  S
C1072      C1073   1.392       .  A
C1073      H1079   1.083       .  S
N1074      C1075   1.353       .  A
N1074      H1082   1.045       .  S
C1075      C1076   1.390       .  A
C1076      H1080   1.083       .  S
C1083      C1088   1.385   1_565  A
C1083      C1084   1.403       .  A
C1083      N1089   1.345       .  A
C1084      C1085   1.403       .  A
C1084      H1095   1.082       .  S
C1085      C1094   1.378       .  A
C1085      C1086   1.385       .  A
C1086      C1087   1.405   1_565  A
C1086      N1092   1.345       .  A
C1087      C1088   1.404       .  A
C1087      H1096   1.082       .  S
C1088      C1091   1.378       .  A
N1089      C1090   1.354   1_565  A
N1089      H1099   1.045       .  S
C1090      C1091   1.394       .  A
C1091      H1097   1.083       .  S
N1092      C1093   1.355       .  A
N1092      H1100   1.045   1_565  S
C1093      C1094   1.393       .  A
C1094      H1098   1.083       .  S
C1101      C1106   1.384       .  A
C1101      C1102   1.407   1_455  A
C1101      N1107   1.348       .  A
C1102      C1103   1.407       .  A
C1102      H1113   1.082       .  S
C1103      C1112   1.383       .  A
C1103      C1104   1.384   1_655  A
C1104      C1105   1.403       .  A
C1104      N1110   1.343       .  A
C1105      C1106   1.402       .  A
C1105      H1114   1.083       .  S
C1106      C1109   1.377       .  A
N1107      C1108   1.357       .  A
N1107      H1117   1.045       .  S
C1108      C1109   1.394       .  A
C1109      H1115   1.083       .  S
N1110      C1111   1.355   1_455  A
N1110      H1118   1.045       .  S
C1111      C1112   1.396       .  A
C1112      H1116   1.082       .  S
C1119      C1124   1.385       .  A
C1119      C1120   1.405       .  A
C1119      N1125   1.346       .  A
C1120      C1121   1.405       .  A
C1120      H1131   1.082       .  S
C1121      C1130   1.381       .  A
C1121      C1122   1.386       .  A
C1122      C1123   1.398       .  A
C1122      N1128   1.338       .  A
C1123      C1124   1.396       .  A
C1123      H1132   1.083       .  S
C1124      C1127   1.369       .  A
N1125      C1126   1.355       .  A
N1125      H1135   1.045       .  S
C1126      C1127   1.391       .  A
C1127      H1133   1.083       .  S
N1128      C1129   1.352       .  A
N1128      H1136   1.045       .  S
C1129      C1130   1.394       .  A
C1130      H1134   1.083       .  S
C1137      C1142   1.384       .  A
C1137      C1138   1.410       .  A
C1137      N1143   1.349       .  A
C1138      C1139   1.409       .  A
C1138      H1149   1.082       .  S
C1139      C1148   1.387       .  A
C1139      C1140   1.384       .  A
C1140      C1141   1.400       .  A
C1140      N1146   1.340   1_655  A
C1141      C1142   1.399       .  A
C1141      H1150   1.083       .  S
C1142      C1145   1.374       .  A
N1143      C1144   1.359       .  A
N1143      H1153   1.044       .  S
C1144      C1145   1.394       .  A
C1145      H1151   1.083       .  S
N1146      C1147   1.355       .  A
N1146      H1154   1.045       .  S
C1147      C1148   1.398   1_455  A
C1148      H1152   1.082       .  S
C1155      C1160   1.385       .  A
C1155      C1156   1.402       .  A
C1155      N1161   1.340       .  A
C1156      C1157   1.400       .  A
C1156      H1167   1.083       .  S
C1157      C1166   1.376       .  A
C1157      C1158   1.385       .  A
C1158      C1159   1.404       .  A
C1158      N1164   1.343       .  A
C1159      C1160   1.403       .  A
C1159      H1168   1.082       .  S
C1160      C1163   1.380       .  A
N1161      C1162   1.355       .  A
N1161      H1171   1.045   1_565  S
C1162      C1163   1.395       .  A
C1163      H1169   1.082       .  S
N1164      C1165   1.356       .  A
N1164      H1172   1.045       .  S
C1165      C1166   1.393       .  A
C1166      H1170   1.083       .  S
C1173      C1178   1.384       .  A
C1173      C1174   1.409       .  A
C1173      N1179   1.351       .  A
C1174      C1175   1.410       .  A
C1174      H1185   1.082       .  S
C1175      C1184   1.384       .  A
C1175      C1176   1.385       .  A
C1176      C1177   1.400       .  A
C1176      N1182   1.343       .  A
C1177      C1178   1.400       .  A
C1177      H1186   1.083       .  S
C1178      C1181   1.371       .  A
N1179      C1180   1.358   1_655  A
N1179      H1189   1.044       .  S
C1180      C1181   1.394   1_455  A
C1181      H1187   1.083   1_655  S
N1182      C1183   1.354       .  A
N1182      H1190   1.045       .  S
C1183      C1184   1.398       .  A
C1184      H1188   1.082       .  S
C1191      C1196   1.384       .  A
C1191      C1192   1.405       .  A
C1191      N1197   1.343       .  A
C1192      C1193   1.403       .  A
C1192      H1203   1.082       .  S
C1193      C1202   1.380       .  A
C1193      C1194   1.384       .  A
C1194      C1195   1.407       .  A
C1194      N1200   1.346       .  A
C1195      C1196   1.406       .  A
C1195      H1204   1.082       .  S
C1196      C1199   1.385       .  A
N1197      C1198   1.357       .  A
N1197      H1207   1.045   1_565  S
C1198      C1199   1.397       .  A
C1199      H1205   1.082       .  S
N1200      C1201   1.357       .  A
N1200      H1208   1.045       .  S
C1201      C1202   1.395       .  A
C1202      H1206   1.082       .  S
C1209      C1214   1.385       .  A
C1209      C1210   1.400       .  A
C1209      N1215   1.341       .  A
C1210      C1211   1.400       .  A
C1210      H1221   1.082       .  S
C1211      C1220   1.373       .  A
C1211      C1212   1.385       .  A
C1212      C1213   1.405       .  A
C1212      N1218   1.346       .  A
C1213      C1214   1.405       .  A
C1213      H1222   1.082       .  S
C1214      C1217   1.380       .  A
N1215      C1216   1.354       .  A
N1215      H1225   1.045       .  S
C1216      C1217   1.396       .  A
C1217      H1223   1.082       .  S
N1218      C1219   1.356       .  A
N1218      H1226   1.045       .  S
C1219      C1220   1.394       .  A
C1220      H1224   1.083       .  S
C1227      C1232   1.385   1_655  A
C1227      C1228   1.409       .  A
C1227      N1233   1.349       .  A
C1228      C1229   1.409   1_655  A
C1228      H1239   1.082       .  S
C1229      C1238   1.387       .  A
C1229      C1230   1.385       .  A
C1230      C1231   1.399       .  A
C1230      N1236   1.340       .  A
C1231      C1232   1.398       .  A
C1231      H1240   1.083       .  S
C1232      C1235   1.373       .  A
N1233      C1234   1.357       .  A
N1233      H1243   1.045       .  S
C1234      C1235   1.390   1_655  A
C1235      H1241   1.083       .  S
N1236      C1237   1.353       .  A
N1236      H1244   1.045       .  S
C1237      C1238   1.397       .  A
C1238      H1242   1.082   1_455  S
C1245      C1250   1.386       .  A
C1245      C1246   1.402       .  A
C1245      N1251   1.340       .  A
C1246      C1247   1.400       .  A
C1246      H1257   1.083       .  S
C1247      C1256   1.377       .  A
C1247      C1248   1.386       .  A
C1248      C1249   1.401       .  A
C1248      N1254   1.340       .  A
C1249      C1250   1.399       .  A
C1249      H1258   1.083       .  S
C1250      C1253   1.377       .  A
N1251      C1252   1.354       .  A
N1251      H1261   1.045       .  S
C1252      C1253   1.391       .  A
C1253      H1259   1.083       .  S
N1254      C1255   1.353       .  A
N1254      H1262   1.045       .  S
C1255      C1256   1.391       .  A
C1256      H1260   1.083       .  S
C1263      C1268   1.385       .  A
C1263      C1264   1.397       .  A
C1263      N1269   1.338       .  A
C1264      C1265   1.396       .  A
C1264      H1275   1.083       .  S
C1265      C1274   1.370       .  A
C1265      C1266   1.385       .  A
C1266      C1267   1.409       .  A
C1266      N1272   1.348       .  A
C1267      C1268   1.408       .  A
C1267      H1276   1.082       .  S
C1268      C1271   1.386       .  A
N1269      C1270   1.353       .  A
N1269      H1279   1.045       .  S
C1270      C1271   1.398       .  A
C1271      H1277   1.082       .  S
N1272      C1273   1.357       .  A
N1272      H1280   1.045       .  S
C1273      C1274   1.389       .  A
C1274      H1278   1.083       .  S
C1281      C1286   1.385   1_655  A
C1281      C1282   1.408       .  A
C1281      N1287   1.348       .  A
C1282      C1283   1.407   1_655  A
C1282      H1293   1.082       .  S
C1283      C1292   1.384       .  A
C1283      C1284   1.385       .  A
C1284      C1285   1.398       .  A
C1284      N1290   1.339       .  A
C1285      C1286   1.397       .  A
C1285      H1294   1.083       .  S
C1286      C1289   1.371       .  A
N1287      C1288   1.356       .  A
N1287      H1297   1.045       .  S
C1288      C1289   1.389   1_655  A
C1289      H1295   1.083       .  S
N1290      C1291   1.353       .  A
N1290      H1298   1.045       .  S
C1291      C1292   1.397       .  A
C1292      H1296   1.082       .  S
C1299      C1304   1.385       .  A
C1299      C1300   1.404       .  A
C1299      N1305   1.343       .  A
C1300      C1301   1.402       .  A
C1300      H1311   1.083       .  S
C1301      C1310   1.379       .  A
C1301      C1302   1.385       .  A
C1302      C1303   1.407       .  A
C1302      N1308   1.346       .  A
C1303      C1304   1.406       .  A
C1303      H1312   1.082       .  S
C1304      C1307   1.383       .  A
N1305      C1306   1.356       .  A
N1305      H1315   1.045   1_455  S
C1306      C1307   1.397       .  A
C1307      H1313   1.082       .  S
N1308      C1309   1.356       .  A
N1308      H1316   1.045       .  S
C1309      C1310   1.395       .  A
C1310      H1314   1.083       .  S
C1317      C1322   1.385       .  A
C1317      C1318   1.402       .  A
C1317      N1323   1.342   1_545  A
C1318      C1319   1.400       .  A
C1318      H1329   1.082       .  S
C1319      C1328   1.376       .  A
C1319      C1320   1.384       .  A
C1320      C1321   1.407       .  A
C1320      N1326   1.347       .  A
C1321      C1322   1.406       .  A
C1321      H1330   1.082       .  S
C1322      C1325   1.382       .  A
N1323      C1324   1.355       .  A
N1323      H1333   1.045       .  S
C1324      C1325   1.397   1_565  A
C1325      H1331   1.082       .  S
N1326      C1327   1.357       .  A
N1326      H1334   1.045       .  S
C1327      C1328   1.393       .  A
C1328      H1332   1.083       .  S
C1335      C1340   1.385       .  A
C1335      C1336   1.408       .  A
C1335      N1341   1.347       .  A
C1336      C1337   1.407       .  A
C1336      H1347   1.082       .  S
C1337      C1346   1.385       .  A
C1337      C1338   1.384       .  A
C1338      C1339   1.401       .  A
C1338      N1344   1.340       .  A
C1339      C1340   1.399       .  A
C1339      H1348   1.083       .  S
C1340      C1343   1.375       .  A
N1341      C1342   1.357       .  A
N1341      H1351   1.045       .  S
C1342      C1343   1.392       .  A
C1343      H1349   1.083       .  S
N1344      C1345   1.355       .  A
N1344      H1352   1.045   1_455  S
C1345      C1346   1.398       .  A
C1346      H1350   1.082       .  S
C1353      C1358   1.385       .  A
C1353      C1354   1.407       .  A
C1353      N1359   1.346       .  A
C1354      C1355   1.405       .  A
C1354      H1365   1.082       .  S
C1355      C1364   1.382       .  A
C1355      C1356   1.384       .  A
C1356      C1357   1.401       .  A
C1356      N1362   1.341   1_545  A
C1357      C1358   1.400       .  A
C1357      H1366   1.082       .  S
C1358      C1361   1.375       .  A
N1359      C1360   1.357       .  A
N1359      H1369   1.045       .  S
C1360      C1361   1.393       .  A
C1361      H1367   1.083       .  S
N1362      C1363   1.355       .  A
N1362      H1370   1.045       .  S
C1363      C1364   1.396   1_565  A
C1364      H1368   1.082       .  S
C1371      C1376   1.385       .  A
C1371      C1372   1.402       .  A
C1371      N1377   1.343       .  A
C1372      C1373   1.402       .  A
C1372      H1383   1.083       .  S
C1373      C1382   1.374       .  A
C1373      C1374   1.385       .  A
C1374      C1375   1.403       .  A
C1374      N1380   1.345       .  A
C1375      C1376   1.403       .  A
C1375      H1384   1.082       .  S
C1376      C1379   1.377       .  A
N1377      C1378   1.355       .  A
N1377      H1387   1.045       .  S
C1378      C1379   1.395       .  A
C1379      H1385   1.082       .  S
N1380      C1381   1.354       .  A
N1380      H1388   1.045       .  S
C1381      C1382   1.395       .  A
C1382      H1386   1.083       .  S
C1389      C1394   1.385   1_455  A
C1389      C1390   1.408       .  A
C1389      N1395   1.348       .  A
C1390      C1391   1.408   1_455  A
C1390      H1401   1.082       .  S
C1391      C1400   1.385       .  A
C1391      C1392   1.385       .  A
C1392      C1393   1.401       .  A
C1392      N1398   1.342       .  A
C1393      C1394   1.400       .  A
C1393      H1402   1.083       .  S
C1394      C1397   1.374   1_655  A
N1395      C1396   1.357       .  A
N1395      H1405   1.045       .  S
C1396      C1397   1.390       .  A
C1397      H1403   1.083   1_455  S
N1398      C1399   1.353       .  A
N1398      H1406   1.045       .  S
C1399      C1400   1.397       .  A
C1400      H1404   1.082   1_655  S
C1407      C1412   1.385       .  A
C1407      C1408   1.400       .  A
C1407      N1413   1.339       .  A
C1408      C1409   1.399       .  A
C1408      H1419   1.083       .  S
C1409      C1418   1.375       .  A
C1409      C1410   1.386       .  A
C1410      C1411   1.402       .  A
C1410      N1416   1.340       .  A
C1411      C1412   1.400       .  A
C1411      H1420   1.082       .  S
C1412      C1415   1.378       .  A
N1413      C1414   1.353       .  A
N1413      H1423   1.045       .  S
C1414      C1415   1.393       .  A
C1415      H1421   1.082       .  S
N1416      C1417   1.353       .  A
N1416      H1424   1.045       .  S
C1417      C1418   1.390       .  A
C1418      H1422   1.083       .  S
C1425      C1430   1.384       .  A
C1425      C1426   1.410       .  A
C1425      N1431   1.349       .  A
C1426      C1427   1.409       .  A
C1426      H1437   1.082       .  S
C1427      C1436   1.387       .  A
C1427      C1428   1.384       .  A
C1428      C1429   1.402       .  A
C1428      N1434   1.341       .  A
C1429      C1430   1.400       .  A
C1429      H1438   1.083       .  S
C1430      C1433   1.376       .  A
N1431      C1432   1.358       .  A
N1431      H1441   1.045       .  S
C1432      C1433   1.393       .  A
C1433      H1439   1.083       .  S
N1434      C1435   1.355       .  A
N1434      H1442   1.045       .  S
C1435      C1436   1.399       .  A
C1436      H1440   1.082       .  S
C1443      C1448   1.384       .  A
C1443      C1444   1.415       .  A
C1443      N1449   1.356       .  A
C1444      C1445   1.415       .  A
C1444      H1455   1.082       .  S
C1445      C1454   1.392       .  A
C1445      C1446   1.384       .  A
C1446      C1447   1.399       .  A
C1446      N1452   1.341       .  A
C1447      C1448   1.398       .  A
C1447      H1456   1.083       .  S
C1448      C1451   1.370       .  A
N1449      C1450   1.361       .  A
N1449      H1459   1.044       .  S
C1450      C1451   1.394       .  A
C1451      H1457   1.083       .  S
N1452      C1453   1.354       .  A
N1452      H1460   1.045       .  S
C1453      C1454   1.403       .  A
C1454      H1458   1.082       .  S
C1461      C1466   1.385       .  A
C1461      C1462   1.404       .  A
C1461      N1467   1.346       .  A
C1462      C1463   1.405       .  A
C1462      H1473   1.082       .  S
C1463      C1472   1.379       .  A
C1463      C1464   1.385       .  A
C1464      C1465   1.401       .  A
C1464      N1470   1.342       .  A
C1465      C1466   1.401       .  A
C1465      H1474   1.083       .  S
C1466      C1469   1.373       .  A
N1467      C1468   1.355       .  A
N1467      H1477   1.045       .  S
C1468      C1469   1.394       .  A
C1469      H1475   1.083       .  S
N1470      C1471   1.355       .  A
N1470      H1478   1.045       .  S
C1471      C1472   1.396       .  A
C1472      H1476   1.082       .  S
C1479      C1484   1.384       .  A
C1479      C1480   1.401       .  A
C1479      N1485   1.343       .  A
C1480      C1481   1.400       .  A
C1480      H1491   1.083       .  S
C1481      C1490   1.373       .  A
C1481      C1482   1.384       .  A
C1482      C1483   1.413       .  A
C1482      N1488   1.354       .  A
C1483      C1484   1.414       .  A
C1483      H1492   1.082       .  S
C1484      C1487   1.390       .  A
N1485      C1486   1.355       .  A
N1485      H1495   1.045       .  S
C1486      C1487   1.401       .  A
C1487      H1493   1.082       .  S
N1488      C1489   1.361       .  A
N1488      H1496   1.044       .  S
C1489      C1490   1.394       .  A
C1490      H1494   1.083       .  S
C1497      C1502   1.385       .  A
C1497      C1498   1.405       .  A
C1497      N1503   1.343       .  A
C1498      C1499   1.403       .  A
C1498      H1509   1.082       .  S
C1499      C1508   1.381       .  A
C1499      C1500   1.385       .  A
C1500      C1501   1.402       .  A
C1500      N1506   1.340       .  A
C1501      C1502   1.400       .  A
C1501      H1510   1.082       .  S
C1502      C1505   1.377       .  A
N1503      C1504   1.356       .  A
N1503      H1513   1.045       .  S
C1504      C1505   1.393       .  A
C1505      H1511   1.083       .  S
N1506      C1507   1.355       .  A
N1506      H1514   1.045       .  S
C1507      C1508   1.396       .  A
C1508      H1512   1.082       .  S
C1515      C1520   1.384       .  A
C1515      C1516   1.401       .  A
C1515      N1521   1.341       .  A
C1516      C1517   1.399       .  A
C1516      H1527   1.083       .  S
C1517      C1526   1.374       .  A
C1517      C1518   1.384       .  A
C1518      C1519   1.411       .  A
C1518      N1524   1.350       .  A
C1519      C1520   1.410       .  A
C1519      H1528   1.082       .  S
C1520      C1523   1.389       .  A
N1521      C1522   1.354       .  A
N1521      H1531   1.045       .  S
C1522      C1523   1.399       .  A
C1523      H1529   1.082       .  S
N1524      C1525   1.358       .  A
N1524      H1532   1.045       .  S
C1525      C1526   1.391       .  A
C1526      H1530   1.083       .  S
C1533      C1538   1.385       .  A
C1533      C1534   1.407       .  A
C1533      N1539   1.346       .  A
C1534      C1535   1.406       .  A
C1534      H1545   1.082       .  S
C1535      C1544   1.384       .  A
C1535      C1536   1.384       .  A
C1536      C1537   1.402       .  A
C1536      N1542   1.341       .  A
C1537      C1538   1.400       .  A
C1537      H1546   1.083       .  S
C1538      C1541   1.376       .  A
N1539      C1540   1.356       .  A
N1539      H1549   1.045       .  S
C1540      C1541   1.393       .  A
C1541      H1547   1.083       .  S
N1542      C1543   1.355       .  A
N1542      H1550   1.045       .  S
C1543      C1544   1.397       .  A
C1544      H1548   1.082       .  S
C1551      C1556   1.385       .  A
C1551      C1552   1.402       .  A
C1551      N1557   1.342       .  A
C1552      C1553   1.401       .  A
C1552      H1563   1.082       .  S
C1553      C1562   1.378       .  A
C1553      C1554   1.384       .  A
C1554      C1555   1.404       .  A
C1554      N1560   1.343       .  A
C1555      C1556   1.403       .  A
C1555      H1564   1.082       .  S
C1556      C1559   1.378       .  A
N1557      C1558   1.355       .  A
N1557      H1567   1.045       .  S
C1558      C1559   1.395       .  A
C1559      H1565   1.082       .  S
N1560      C1561   1.357       .  A
N1560      H1568   1.045       .  S
C1561      C1562   1.394       .  A
C1562      H1566   1.082       .  S
C1569      C1574   1.385       .  A
C1569      C1570   1.409       .  A
C1569      N1575   1.348       .  A
C1570      C1571   1.408       .  A
C1570      H1581   1.082       .  S
C1571      C1580   1.386       .  A
C1571      C1572   1.385       .  A
C1572      C1573   1.401       .  A
C1572      N1578   1.340       .  A
C1573      C1574   1.399       .  A
C1573      H1582   1.083       .  S
C1574      C1577   1.375       .  A
N1575      C1576   1.357       .  A
N1575      H1585   1.045       .  S
C1576      C1577   1.391       .  A
C1577      H1583   1.083       .  S
N1578      C1579   1.354       .  A
N1578      H1586   1.045       .  S
C1579      C1580   1.397       .  A
C1580      H1584   1.082       .  S
C1587      C1592   1.384       .  A
C1587      C1588   1.410       .  A
C1587      N1593   1.351       .  A
C1588      C1589   1.410       .  A
C1588      H1599   1.082       .  S
C1589      C1598   1.386       .  A
C1589      C1590   1.384       .  A
C1590      C1591   1.400       .  A
C1590      N1596   1.342       .  A
C1591      C1592   1.399       .  A
C1591      H1600   1.083       .  S
C1592      C1595   1.371       .  A
N1593      C1594   1.358       .  A
N1593      H1603   1.044       .  S
C1594      C1595   1.393       .  A
C1595      H1601   1.083       .  S
N1596      C1597   1.355       .  A
N1596      H1604   1.045       .  S
C1597      C1598   1.400       .  A
C1598      H1602   1.082       .  S
C1605      C1610   1.384       .  A
C1605      C1606   1.400       .  A
C1605      N1611   1.340       .  A
C1606      C1607   1.399       .  A
C1606      H1617   1.083       .  S
C1607      C1616   1.373       .  A
C1607      C1608   1.384       .  A
C1608      C1609   1.411       .  A
C1608      N1614   1.351       .  A
C1609      C1610   1.410       .  A
C1609      H1618   1.082       .  S
C1610      C1613   1.389       .  A
N1611      C1612   1.355       .  A
N1611      H1621   1.045       .  S
C1612      C1613   1.399       .  A
C1613      H1619   1.082       .  S
N1614      C1615   1.359       .  A
N1614      H1622   1.044       .  S
C1615      C1616   1.394       .  A
C1616      H1620   1.083       .  S
C1623      C1628   1.384       .  A
C1623      C1624   1.407       .  A
C1623      N1629   1.350       .  A
C1624      C1625   1.408       .  A
C1624      H1635   1.082       .  S
C1625      C1634   1.383       .  A
C1625      C1626   1.385       .  A
C1626      C1627   1.403       .  A
C1626      N1632   1.345       .  A
C1627      C1628   1.403       .  A
C1627      H1636   1.083       .  S
C1628      C1631   1.375       .  A
N1629      C1630   1.357       .  A
N1629      H1639   1.044       .  S
C1630      C1631   1.396       .  A
C1631      H1637   1.083       .  S
N1632      C1633   1.355       .  A
N1632      H1640   1.045       .  S
C1633      C1634   1.396       .  A
C1634      H1638   1.082       .  S
C1641      C1646   1.385       .  A
C1641      C1642   1.402       .  A
C1641      N1647   1.342       .  A
C1642      C1643   1.401       .  A
C1642      H1653   1.082       .  S
C1643      C1652   1.376       .  A
C1643      C1644   1.385       .  A
C1644      C1645   1.403       .  A
C1644      N1650   1.343       .  A
C1645      C1646   1.402       .  A
C1645      H1654   1.082       .  S
C1646      C1649   1.377       .  A
N1647      C1648   1.355       .  A
N1647      H1657   1.045       .  S
C1648      C1649   1.394       .  A
C1649      H1655   1.082       .  S
N1650      C1651   1.355       .  A
N1650      H1658   1.045       .  S
C1651      C1652   1.394       .  A
C1652      H1656   1.082       .  S
C1659      C1664   1.384       .  A
C1659      C1660   1.414       .  A
C1659      N1665   1.353       .  A
C1660      C1661   1.414       .  A
C1660      H1671   1.082       .  S
C1661      C1670   1.391       .  A
C1661      C1662   1.385       .  A
C1662      C1663   1.397       .  A
C1662      N1668   1.338       .  A
C1663      C1664   1.396       .  A
C1663      H1672   1.083       .  S
C1664      C1667   1.369       .  A
N1665      C1666   1.361       .  A
N1665      H1675   1.044       .  S
C1666      C1667   1.392       .  A
C1667      H1673   1.083       .  S
N1668      C1669   1.352       .  A
N1668      H1676   1.045       .  S
C1669      C1670   1.400       .  A
C1670      H1674   1.082       .  S
C1677      C1682   1.384       .  A
C1677      C1678   1.404       .  A
C1677      N1683   1.342       .  A
C1678      C1679   1.402       .  A
C1678      H1689   1.082       .  S
C1679      C1688   1.379       .  A
C1679      C1680   1.384       .  A
C1680      C1681   1.409       .  A
C1680      N1686   1.348       .  A
C1681      C1682   1.408       .  A
C1681      H1690   1.082       .  S
C1682      C1685   1.387       .  A
N1683      C1684   1.356       .  A
N1683      H1693   1.045       .  S
C1684      C1685   1.397       .  A
C1685      H1691   1.082       .  S
N1686      C1687   1.359       .  A
N1686      H1694   1.045       .  S
C1687      C1688   1.395       .  A
C1688      H1692   1.082       .  S
C1695      C1700   1.384       .  A
C1695      C1696   1.403       .  A
C1695      N1701   1.341       .  A
C1696      C1697   1.401       .  A
C1696      H1707   1.083       .  S
C1697      C1706   1.377       .  A
C1697      C1698   1.384       .  A
C1698      C1699   1.406       .  A
C1698      N1704   1.345       .  A
C1699      C1700   1.405       .  A
C1699      H1708   1.082       .  S
C1700      C1703   1.383       .  A
N1701      C1702   1.356       .  A
N1701      H1711   1.045       .  S
C1702      C1703   1.396       .  A
C1703      H1709   1.082       .  S
N1704      C1705   1.357       .  A
N1704      H1712   1.045       .  S
C1705      C1706   1.394       .  A
C1706      H1710   1.083       .  S
C1713      C1718   1.384       .  A
C1713      C1714   1.413       .  A
C1713      N1719   1.353       .  A
C1714      C1715   1.413       .  A
C1714      H1725   1.082       .  S
C1715      C1724   1.390       .  A
C1715      C1716   1.385       .  A
C1716      C1717   1.398       .  A
C1716      N1722   1.339       .  A
C1717      C1718   1.397       .  A
C1717      H1726   1.083       .  S
C1718      C1721   1.371       .  A
N1719      C1720   1.360       .  A
N1719      H1729   1.044       .  S
C1720      C1721   1.392       .  A
C1721      H1727   1.083       .  S
N1722      C1723   1.353       .  A
N1722      H1730   1.045       .  S
C1723      C1724   1.401       .  A
C1724      H1728   1.082       .  S
C1731      C1736   1.384       .  A
C1731      C1732   1.400       .  A
C1731      N1737   1.338       .  A
C1732      C1733   1.398       .  A
C1732      H1743   1.083       .  S
C1733      C1742   1.376       .  A
C1733      C1734   1.385       .  A
C1734      C1735   1.408       .  A
C1734      N1740   1.345       .  A
C1735      C1736   1.406       .  A
C1735      H1744   1.082       .  S
C1736      C1739   1.386       .  A
N1737      C1738   1.355       .  A
N1737      H1747   1.045       .  S
C1738      C1739   1.397       .  A
C1739      H1745   1.082       .  S
N1740      C1741   1.357       .  A
N1740      H1748   1.045       .  S
C1741      C1742   1.392       .  A
C1742      H1746   1.083       .  S
C1749      C1754   1.385       .  A
C1749      C1750   1.402       .  A
C1749      N1755   1.344       .  A
C1750      C1751   1.403       .  A
C1750      H1761   1.083       .  S
C1751      C1760   1.375       .  A
C1751      C1752   1.384       .  A
C1752      C1753   1.407       .  A
C1752      N1758   1.349       .  A
C1753      C1754   1.407       .  A
C1753      H1762   1.082       .  S
C1754      C1757   1.382       .  A
N1755      C1756   1.354       .  A
N1755      H1765   1.045       .  S
C1756      C1757   1.396       .  A
C1757      H1763   1.082       .  S
N1758      C1759   1.357       .  A
N1758      H1766   1.044       .  S
C1759      C1760   1.396       .  A
C1760      H1764   1.083       .  S
C1767      C1772   1.384       .  A
C1767      C1768   1.407       .  A
C1767      N1773   1.347       .  A
C1768      C1769   1.407       .  A
C1768      H1779   1.082       .  S
C1769      C1778   1.383       .  A
C1769      C1770   1.385       .  A
C1770      C1771   1.401       .  A
C1770      N1776   1.342       .  A
C1771      C1772   1.401       .  A
C1771      H1780   1.082       .  S
C1772      C1775   1.375       .  A
N1773      C1774   1.357       .  A
N1773      H1783   1.045       .  S
C1774      C1775   1.394       .  A
C1775      H1781   1.083       .  S
N1776      C1777   1.354       .  A
N1776      H1784   1.045       .  S
C1777      C1778   1.397       .  A
C1778      H1782   1.082       .  S
C1785      C1790   1.385       .  A
C1785      C1786   1.399       .  A
C1785      N1791   1.341       .  A
C1786      C1787   1.398       .  A
C1786      H1797   1.083       .  S
C1787      C1796   1.372       .  A
C1787      C1788   1.384       .  A
C1788      C1789   1.411       .  A
C1788      N1794   1.351       .  A
C1789      C1790   1.411       .  A
C1789      H1798   1.082       .  S
C1790      C1793   1.388       .  A
N1791      C1792   1.354       .  A
N1791      H1801   1.045       .  S
C1792      C1793   1.400       .  A
C1793      H1799   1.082       .  S
N1794      C1795   1.359       .  A
N1794      H1802   1.045       .  S
C1795      C1796   1.392       .  A
C1796      H1800   1.083       .  S
C1803      C1808   1.385       .  A
C1803      C1804   1.404       .  A
C1803      N1809   1.345       .  A
C1804      C1805   1.403       .  A
C1804      H1815   1.082       .  S
C1805      C1814   1.379       .  A
C1805      C1806   1.385       .  A
C1806      C1807   1.406       .  A
C1806      N1812   1.346       .  A
C1807      C1808   1.406       .  A
C1807      H1816   1.082       .  S
C1808      C1811   1.382       .  A
N1809      C1810   1.354       .  A
N1809      H1819   1.045       .  S
C1810      C1811   1.395       .  A
C1811      H1817   1.083       .  S
N1812      C1813   1.356       .  A
N1812      H1820   1.045       .  S
C1813      C1814   1.393       .  A
C1814      H1818   1.083       .  S
C1821      C1826   1.385       .  A
C1821      C1822   1.405       .  A
C1821      N1827   1.346       .  A
C1822      C1823   1.405       .  A
C1822      H1833   1.082       .  S
C1823      C1832   1.380       .  A
C1823      C1824   1.386       .  A
C1824      C1825   1.397       .  A
C1824      N1830   1.338       .  A
C1825      C1826   1.396       .  A
C1825      H1834   1.083       .  S
C1826      C1829   1.369       .  A
N1827      C1828   1.356       .  A
N1827      H1837   1.045       .  S
C1828      C1829   1.391       .  A
C1829      H1835   1.083       .  S
N1830      C1831   1.351       .  A
N1830      H1838   1.045       .  S
C1831      C1832   1.393       .  A
C1832      H1836   1.083       .  S
C1839      C1844   1.385       .  A
C1839      C1840   1.410       .  A
C1839      N1845   1.349       .  A
C1840      C1841   1.408       .  A
C1840      H1851   1.082       .  S
C1841      C1850   1.387       .  A
C1841      C1842   1.384       .  A
C1842      C1843   1.402       .  A
C1842      N1848   1.342       .  A
C1843      C1844   1.401       .  A
C1843      H1852   1.083       .  S
C1844      C1847   1.376       .  A
N1845      C1846   1.357       .  A
N1845      H1855   1.045       .  S
C1846      C1847   1.393       .  A
C1847      H1853   1.083       .  S
N1848      C1849   1.355       .  A
N1848      H1856   1.045       .  S
C1849      C1850   1.397       .  A
C1850      H1854   1.082       .  S
C1857      C1862   1.384       .  A
C1857      C1858   1.401   1_554  A
C1857      N1863   1.343       .  A
C1858      C1859   1.400       .  A
C1858      H1869   1.082       .  S
C1859      C1868   1.375       .  A
C1859      C1860   1.384       .  A
C1860      C1861   1.411       .  A
C1860      N1866   1.350       .  A
C1861      C1862   1.411   1_556  A
C1861      H1870   1.082       .  S
C1862      C1865   1.386       .  A
N1863      C1864   1.355       .  A
N1863      H1873   1.045       .  S
C1864      C1865   1.401       .  A
C1865      H1871   1.082       .  S
N1866      C1867   1.359       .  A
N1866      H1874   1.044       .  S
C1867      C1868   1.394       .  A
C1868      H1872   1.083       .  S
C1875      C1880   1.384       .  A
C1875      C1876   1.414       .  A
C1875      N1881   1.353       .  A
C1876      C1877   1.413       .  A
C1876      H1887   1.082       .  S
C1877      C1886   1.393       .  A
C1877      C1878   1.384       .  A
C1878      C1879   1.399       .  A
C1878      N1884   1.339       .  A
C1879      C1880   1.398       .  A
C1879      H1888   1.083       .  S
C1880      C1883   1.373       .  A
N1881      C1882   1.360       .  A
N1881      H1891   1.044       .  S
C1882      C1883   1.392       .  A
C1883      H1889   1.083       .  S
N1884      C1885   1.353       .  A
N1884      H1892   1.045       .  S
C1885      C1886   1.401       .  A
C1886      H1890   1.082       .  S
C1893      C1898   1.386       .  A
C1893      C1894   1.401       .  A
C1893      N1899   1.342       .  A
C1894      C1895   1.400       .  A
C1894      H1905   1.083       .  S
C1895      C1904   1.375       .  A
C1895      C1896   1.386       .  A
C1896      C1897   1.401       .  A
C1896      N1902   1.342       .  A
C1897      C1898   1.400       .  A
C1897      H1906   1.083       .  S
C1898      C1901   1.375       .  A
N1899      C1900   1.352       .  A
N1899      H1909   1.045       .  S
C1900      C1901   1.392       .  A
C1901      H1907   1.083       .  S
N1902      C1903   1.353       .  A
N1902      H1910   1.045       .  S
C1903      C1904   1.393       .  A
C1904      H1908   1.083       .  S
C1911      C1916   1.384       .  A
C1911      C1912   1.411       .  A
C1911      N1917   1.350       .  A
C1912      C1913   1.410       .  A
C1912      H1923   1.082       .  S
C1913      C1922   1.389       .  A
C1913      C1914   1.385       .  A
C1914      C1915   1.400       .  A
C1914      N1920   1.339       .  A
C1915      C1916   1.398       .  A
C1915      H1924   1.083       .  S
C1916      C1919   1.373       .  A
N1917      C1918   1.358       .  A
N1917      H1927   1.044       .  S
C1918      C1919   1.393       .  A
C1919      H1925   1.083       .  S
N1920      C1921   1.354       .  A
N1920      H1928   1.045       .  S
C1921      C1922   1.399       .  A
C1922      H1926   1.082       .  S
C1929      C1934   1.385       .  A
C1929      C1930   1.398       .  A
C1929      N1935   1.339       .  A
C1930      C1931   1.396       .  A
C1930      H1941   1.083       .  S
C1931      C1940   1.369       .  A
C1931      C1932   1.385       .  A
C1932      C1933   1.406       .  A
C1932      N1938   1.347       .  A
C1933      C1934   1.406       .  A
C1933      H1942   1.082       .  S
C1934      C1937   1.382       .  A
N1935      C1936   1.352       .  A
N1935      H1945   1.045       .  S
C1936      C1937   1.396       .  A
C1937      H1943   1.082       .  S
N1938      C1939   1.356       .  A
N1938      H1946   1.045       .  S
C1939      C1940   1.392       .  A
C1940      H1944   1.083       .  S
C1947      C1952   1.385       .  A
C1947      C1948   1.399       .  A
C1947      N1953   1.339       .  A
C1948      C1949   1.398       .  A
C1948      H1959   1.083       .  S
C1949      C1958   1.373       .  A
C1949      C1950   1.384       .  A
C1950      C1951   1.409       .  A
C1950      N1956   1.349       .  A
C1951      C1952   1.408       .  A
C1951      H1960   1.082       .  S
C1952      C1955   1.385       .  A
N1953      C1954   1.352       .  A
N1953      H1963   1.045       .  S
C1954      C1955   1.397       .  A
C1955      H1961   1.082       .  S
N1956      C1957   1.358       .  A
N1956      H1964   1.045       .  S
C1957      C1958   1.393       .  A
C1958      H1962   1.083       .  S
C1965      C1970   1.385       .  A
C1965      C1966   1.399       .  A
C1965      N1971   1.343       .  A
C1966      C1967   1.400       .  A
C1966      H1977   1.082       .  S
C1967      C1976   1.370       .  A
C1967      C1968   1.384       .  A
C1968      C1969   1.408       .  A
C1968      N1974   1.350       .  A
C1969      C1970   1.409       .  A
C1969      H1978   1.082       .  S
C1970      C1973   1.382       .  A
N1971      C1972   1.353       .  A
N1971      H1981   1.045       .  S
C1972      C1973   1.398       .  A
C1973      H1979   1.082       .  S
N1974      C1975   1.358       .  A
N1974      H1982   1.045       .  S
C1975      C1976   1.394       .  A
C1976      H1980   1.083       .  S
C1983      C1988   1.385       .  A
C1983      C1984   1.401       .  A
C1983      N1989   1.341       .  A
C1984      C1985   1.399       .  A
C1984      H1995   1.083       .  S
C1985      C1994   1.374       .  A
C1985      C1986   1.384       .  A
C1986      C1987   1.412       .  A
C1986      N1992   1.351       .  A
C1987      C1988   1.411       .  A
C1987      H1996   1.082       .  S
C1988      C1991   1.389       .  A
N1989      C1990   1.353       .  A
N1989      H1999   1.045       .  S
C1990      C1991   1.399       .  A
C1991      H1997   1.082       .  S
N1992      C1993   1.359       .  A
N1992      H2000   1.044       .  S
C1993      C1994   1.394       .  A
C1994      H1998   1.083       .  S
C2001      C2006   1.384       .  A
C2001      C2002   1.409       .  A
C2001      N2007   1.350       .  A
C2002      C2003   1.409       .  A
C2002      H2013   1.082       .  S
C2003      C2012   1.384       .  A
C2003      C2004   1.385       .  A
C2004      C2005   1.401       .  A
C2004      N2010   1.344       .  A
C2005      C2006   1.401       .  A
C2005      H2014   1.082       .  S
C2006      C2009   1.374       .  A
N2007      C2008   1.359       .  A
N2007      H2017   1.045       .  S
C2008      C2009   1.395       .  A
C2009      H2015   1.083       .  S
N2010      C2011   1.354       .  A
N2010      H2018   1.045       .  S
C2011      C2012   1.398       .  A
C2012      H2016   1.082       .  S
C2019      C2024   1.385       .  A
C2019      C2020   1.400   1_554  A
C2019      N2025   1.341       .  A
C2020      C2021   1.399       .  A
C2020      H2031   1.082       .  S
C2021      C2030   1.372       .  A
C2021      C2022   1.384       .  A
C2022      C2023   1.407       .  A
C2022      N2028   1.347       .  A
C2023      C2024   1.407   1_556  A
C2023      H2032   1.082       .  S
C2024      C2027   1.382       .  A
N2025      C2026   1.354       .  A
N2025      H2035   1.045       .  S
C2026      C2027   1.398       .  A
C2027      H2033   1.082       .  S
N2028      C2029   1.357       .  A
N2028      H2036   1.045       .  S
C2029      C2030   1.394       .  A
C2030      H2034   1.083       .  S
C2037      C2042   1.386       .  A
C2037      C2038   1.403       .  A
C2037      N2043   1.345       .  A
C2038      C2039   1.403       .  A
C2038      H2049   1.083       .  S
C2039      C2048   1.376       .  A
C2039      C2040   1.386       .  A
C2040      C2041   1.400       .  A
C2040      N2046   1.343       .  A
C2041      C2042   1.400       .  A
C2041      H2050   1.083       .  S
C2042      C2045   1.374       .  A
N2043      C2044   1.354       .  A
N2043      H2053   1.045       .  S
C2044      C2045   1.391       .  A
C2045      H2051   1.083       .  S
N2046      C2047   1.352       .  A
N2046      H2054   1.045       .  S
C2047      C2048   1.393       .  A
C2048      H2052   1.083       .  S
C2055      C2060   1.385       .  A
C2055      C2056   1.398       .  A
C2055      N2061   1.338       .  A
C2056      C2057   1.397       .  A
C2056      H2067   1.083       .  S
C2057      C2066   1.371       .  A
C2057      C2058   1.385       .  A
C2058      C2059   1.410       .  A
C2058      N2064   1.350       .  A
C2059      C2060   1.409       .  A
C2059      H2068   1.082       .  S
C2060      C2063   1.387       .  A
N2061      C2062   1.352       .  A
N2061      H2071   1.045       .  S
C2062      C2063   1.397       .  A
C2063      H2069   1.082       .  S
N2064      C2065   1.358       .  A
N2064      H2072   1.045       .  S
C2065      C2066   1.391       .  A
C2066      H2070   1.083       .  S
C2073      C2078   1.384       .  A
C2073      C2074   1.410       .  A
C2073      N2079   1.350       .  A
C2074      C2075   1.410       .  A
C2074      H2085   1.082       .  S
C2075      C2084   1.387       .  A
C2075      C2076   1.385       .  A
C2076      C2077   1.398       .  A
C2076      N2082   1.338       .  A
C2077      C2078   1.397       .  A
C2077      H2086   1.083       .  S
C2078      C2081   1.370       .  A
N2079      C2080   1.357       .  A
N2079      H2089   1.044       .  S
C2080      C2081   1.393       .  A
C2081      H2087   1.083       .  S
N2082      C2083   1.353       .  A
N2082      H2090   1.045       .  S
C2083      C2084   1.398       .  A
C2084      H2088   1.082       .  S
C2091      C2096   1.385       .  A
C2091      C2092   1.404       .  A
C2091      N2097   1.345       .  A
C2092      C2093   1.405       .  A
C2092      H2103   1.082       .  S
C2093      C2102   1.379       .  A
C2093      C2094   1.386       .  A
C2094      C2095   1.400       .  A
C2094      N2100   1.341       .  A
C2095      C2096   1.398       .  A
C2095      H2104   1.083       .  S
C2096      C2099   1.372       .  A
N2097      C2098   1.355       .  A
N2097      H2107   1.045       .  S
C2098      C2099   1.391       .  A
C2099      H2105   1.083       .  S
N2100      C2101   1.352       .  A
N2100      H2108   1.045       .  S
C2101      C2102   1.394       .  A
C2102      H2106   1.083       .  S
C2109      C2114   1.385       .  A
C2109      C2110   1.407       .  A
C2109      N2115   1.347       .  A
C2110      C2111   1.407       .  A
C2110      H2121   1.082       .  S
C2111      C2120   1.383       .  A
C2111      C2112   1.385       .  A
C2112      C2113   1.400       .  A
C2112      N2118   1.341       .  A
C2113      C2114   1.399       .  A
C2113      H2122   1.083       .  S
C2114      C2117   1.372       .  A
N2115      C2116   1.355       .  A
N2115      H2125   1.045       .  S
C2116      C2117   1.391       .  A
C2117      H2123   1.083       .  S
N2118      C2119   1.354       .  A
N2118      H2126   1.045       .  S
C2119      C2120   1.397       .  A
C2120      H2124   1.082       .  S
C2127      C2132   1.384       .  A
C2127      C2128   1.400       .  A
C2127      N2133   1.339       .  A
C2128      C2129   1.398       .  A
C2128      H2139   1.083       .  S
C2129      C2138   1.374       .  A
C2129      C2130   1.385       .  A
C2130      C2131   1.406       .  A
C2130      N2136   1.345       .  A
C2131      C2132   1.405       .  A
C2131      H2140   1.082       .  S
C2132      C2135   1.383       .  A
N2133      C2134   1.355       .  A
N2133      H2143   1.045       .  S
C2134      C2135   1.397       .  A
C2135      H2141   1.082       .  S
N2136      C2137   1.356       .  A
N2136      H2144   1.045       .  S
C2137      C2138   1.393       .  A
C2138      H2142   1.083       .  S
C2145      C2150   1.384       .  A
C2145      C2146   1.411       .  A
C2145      N2151   1.352       .  A
C2146      C2147   1.411       .  A
C2146      H2157   1.082       .  S
C2147      C2156   1.388       .  A
C2147      C2148   1.384       .  A
C2148      C2149   1.398       .  A
C2148      N2154   1.340       .  A
C2149      C2150   1.397       .  A
C2149      H2158   1.083       .  S
C2150      C2153   1.370       .  A
N2151      C2152   1.359       .  A
N2151      H2161   1.044       .  S
C2152      C2153   1.392       .  A
C2153      H2159   1.083       .  S
N2154      C2155   1.354       .  A
N2154      H2162   1.045       .  S
C2155      C2156   1.399       .  A
C2156      H2160   1.082       .  S
C2163      C2168   1.384       .  A
C2163      C2164   1.409       .  A
C2163      N2169   1.347       .  A
C2164      C2165   1.408       .  A
C2164      H2175   1.082       .  S
C2165      C2174   1.387       .  A
C2165      C2166   1.384       .  A
C2166      C2167   1.401       .  A
C2166      N2172   1.340       .  A
C2167      C2168   1.399       .  A
C2167      H2176   1.083       .  S
C2168      C2171   1.376       .  A
N2169      C2170   1.357       .  A
N2169      H2179   1.045       .  S
C2170      C2171   1.393       .  A
C2171      H2177   1.083       .  S
N2172      C2173   1.355       .  A
N2172      H2180   1.045       .  S
C2173      C2174   1.398       .  A
C2174      H2178   1.082       .  S
C2181      C2186   1.385       .  A
C2181      C2182   1.402   1_554  A
C2181      N2187   1.343       .  A
C2182      C2183   1.401       .  A
C2182      H2193   1.082       .  S
C2183      C2192   1.374       .  A
C2183      C2184   1.384       .  A
C2184      C2185   1.406       .  A
C2184      N2190   1.347       .  A
C2185      C2186   1.406   1_556  A
C2185      H2194   1.082       .  S
C2186      C2189   1.381       .  A
N2187      C2188   1.355       .  A
N2187      H2197   1.045       .  S
C2188      C2189   1.397       .  A
C2189      H2195   1.082       .  S
N2190      C2191   1.357       .  A
N2190      H2198   1.045       .  S
C2191      C2192   1.394       .  A
C2192      H2196   1.083       .  S
C2199      C2204   1.386       .  A
C2199      C2200   1.402       .  A
C2199      N2205   1.341       .  A
C2200      C2201   1.400       .  A
C2200      H2211   1.083       .  S
C2201      C2210   1.376       .  A
C2201      C2202   1.386       .  A
C2202      C2203   1.400       .  A
C2202      N2208   1.340       .  A
C2203      C2204   1.399       .  A
C2203      H2212   1.083       .  S
C2204      C2207   1.375       .  A
N2205      C2206   1.354       .  A
N2205      H2215   1.045       .  S
C2206      C2207   1.391       .  A
C2207      H2213   1.083       .  S
N2208      C2209   1.353       .  A
N2208      H2216   1.045       .  S
C2209      C2210   1.392       .  A
C2210      H2214   1.083       .  S
C2217      C2222   1.384       .  A
C2217      C2218   1.411       .  A
C2217      N2223   1.350       .  A
C2218      C2219   1.410       .  A
C2218      H2229   1.082       .  S
C2219      C2228   1.387       .  A
C2219      C2220   1.385       .  A
C2220      C2221   1.402       .  A
C2220      N2226   1.342       .  A
C2221      C2222   1.400       .  A
C2221      H2230   1.083       .  S
C2222      C2225   1.376       .  A
N2223      C2224   1.358       .  A
N2223      H2233   1.045       .  S
C2224      C2225   1.391       .  A
C2225      H2231   1.083       .  S
N2226      C2227   1.354       .  A
N2226      H2234   1.045       .  S
C2227      C2228   1.398       .  A
C2228      H2232   1.082       .  S
C2235      C2240   1.384       .  A
C2235      C2236   1.410       .  A
C2235      N2241   1.350       .  A
C2236      C2237   1.410       .  A
C2236      H2247   1.082       .  S
C2237      C2246   1.386       .  A
C2237      C2238   1.385       .  A
C2238      C2239   1.400       .  A
C2238      N2244   1.341       .  A
C2239      C2240   1.399       .  A
C2239      H2248   1.083       .  S
C2240      C2243   1.373       .  A
N2241      C2242   1.358       .  A
N2241      H2251   1.044       .  S
C2242      C2243   1.393       .  A
C2243      H2249   1.083       .  S
N2244      C2245   1.353       .  A
N2244      H2252   1.045       .  S
C2245      C2246   1.398       .  A
C2246      H2250   1.082       .  S
C2253      C2258   1.385       .  A
C2253      C2254   1.405       .  A
C2253      N2259   1.346       .  A
C2254      C2255   1.405       .  A
C2254      H2265   1.082       .  S
C2255      C2264   1.380       .  A
C2255      C2256   1.385       .  A
C2256      C2257   1.402       .  A
C2256      N2262   1.344       .  A
C2257      C2258   1.401       .  A
C2257      H2266   1.082       .  S
C2258      C2261   1.376       .  A
N2259      C2260   1.356       .  A
N2259      H2269   1.045       .  S
C2260      C2261   1.392       .  A
C2261      H2267   1.083       .  S
N2262      C2263   1.354       .  A
N2262      H2270   1.045       .  S
C2263      C2264   1.396       .  A
C2264      H2268   1.083       .  S
C2271      C2276   1.385       .  A
C2271      C2272   1.398       .  A
C2271      N2277   1.337       .  A
C2272      C2273   1.397       .  A
C2272      H2283   1.083       .  S
C2273      C2282   1.373       .  A
C2273      C2274   1.385       .  A
C2274      C2275   1.407       .  A
C2274      N2280   1.345       .  A
C2275      C2276   1.405       .  A
C2275      H2284   1.082       .  S
C2276      C2279   1.384       .  A
N2277      C2278   1.352       .  A
N2277      H2287   1.045       .  S
C2278      C2279   1.396       .  A
C2279      H2285   1.082       .  S
N2280      C2281   1.356       .  A
N2280      H2288   1.045       .  S
C2281      C2282   1.391       .  A
C2282      H2286   1.083       .  S
C2289      C2294   1.384       .  A
C2289      C2290   1.410       .  A
C2289      N2295   1.348       .  A
C2290      C2291   1.409       .  A
C2290      H2301   1.082       .  S
C2291      C2300   1.387       .  A
C2291      C2292   1.384       .  A
C2292      C2293   1.401       .  A
C2292      N2298   1.340       .  A
C2293      C2294   1.399       .  A
C2293      H2302   1.083       .  S
C2294      C2297   1.374       .  A
N2295      C2296   1.358       .  A
N2295      H2305   1.045       .  S
C2296      C2297   1.393       .  A
C2297      H2303   1.083       .  S
N2298      C2299   1.355       .  A
N2298      H2306   1.045       .  S
C2299      C2300   1.399       .  A
C2300      H2304   1.082       .  S
C2307      C2312   1.384       .  A
C2307      C2308   1.405       .  A
C2307      N2313   1.344       .  A
C2308      C2309   1.404       .  A
C2308      H2319   1.082       .  S
C2309      C2318   1.381       .  A
C2309      C2310   1.385       .  A
C2310      C2311   1.403       .  A
C2310      N2316   1.342       .  A
C2311      C2312   1.401       .  A
C2311      H2320   1.082       .  S
C2312      C2315   1.378       .  A
N2313      C2314   1.357       .  A
N2313      H2323   1.045       .  S
C2314      C2315   1.394       .  A
C2315      H2321   1.082       .  S
N2316      C2317   1.355       .  A
N2316      H2324   1.045       .  S
C2317      C2318   1.396       .  A
C2318      H2322   1.082       .  S
C2325      C2330   1.384       .  A
C2325      C2326   1.411       .  A
C2325      N2331   1.350       .  A
C2326      C2327   1.410       .  A
C2326      H2337   1.082       .  S
C2327      C2336   1.388       .  A
C2327      C2328   1.385       .  A
C2328      C2329   1.399       .  A
C2328      N2334   1.340       .  A
C2329      C2330   1.398       .  A
C2329      H2338   1.083       .  S
C2330      C2333   1.373       .  A
N2331      C2332   1.359       .  A
N2331      H2341   1.045       .  S
C2332      C2333   1.392       .  A
C2333      H2339   1.083       .  S
N2334      C2335   1.354       .  A
N2334      H2342   1.045       .  S
C2335      C2336   1.399       .  A
C2336      H2340   1.082       .  S
C2343      C2348   1.385       .  A
C2343      C2344   1.400       .  A
C2343      N2349   1.342       .  A
C2344      C2345   1.400       .  A
C2344      H2355   1.083       .  S
C2345      C2354   1.373       .  A
C2345      C2346   1.385       .  A
C2346      C2347   1.405       .  A
C2346      N2352   1.346       .  A
C2347      C2348   1.405       .  A
C2347      H2356   1.082       .  S
C2348      C2351   1.380       .  A
N2349      C2350   1.354       .  A
N2349      H2359   1.045       .  S
C2350      C2351   1.395       .  A
C2351      H2357   1.082       .  S
N2352      C2353   1.355       .  A
N2352      H2360   1.045       .  S
C2353      C2354   1.395       .  A
C2354      H2358   1.083       .  S
C2361      C2366   1.385       .  A
C2361      C2362   1.407       .  A
C2361      N2367   1.346       .  A
C2362      C2363   1.405       .  A
C2362      H2373   1.082       .  S
C2363      C2372   1.384       .  A
C2363      C2364   1.384       .  A
C2364      C2365   1.405       .  A
C2364      N2370   1.343       .  A
C2365      C2366   1.403       .  A
C2365      H2374   1.082       .  S
C2366      C2369   1.381       .  A
N2367      C2368   1.356       .  A
N2367      H2377   1.045       .  S
C2368      C2369   1.395       .  A
C2369      H2375   1.083       .  S
N2370      C2371   1.357       .  A
N2370      H2378   1.045       .  S
C2371      C2372   1.397       .  A
C2372      H2376   1.082       .  S
C2379      C2384   1.385       .  A
C2379      C2380   1.403       .  A
C2379      N2385   1.343       .  A
C2380      C2381   1.402   1_556  A
C2380      H2391   1.082       .  S
C2381      C2390   1.377       .  A
C2381      C2382   1.385       .  A
C2382      C2383   1.403   1_554  A
C2382      N2388   1.344       .  A
C2383      C2384   1.402       .  A
C2383      H2392   1.082       .  S
C2384      C2387   1.378       .  A
N2385      C2386   1.355       .  A
N2385      H2395   1.045       .  S
C2386      C2387   1.395       .  A
C2387      H2393   1.082       .  S
N2388      C2389   1.355       .  A
N2388      H2396   1.045       .  S
C2389      C2390   1.395       .  A
C2390      H2394   1.083       .  S
C2397      C2402   1.385       .  A
C2397      C2398   1.400       .  A
C2397      N2403   1.342       .  A
C2398      C2399   1.400       .  A
C2398      H2409   1.083       .  S
C2399      C2408   1.374       .  A
C2399      C2400   1.385       .  A
C2400      C2401   1.409       .  A
C2400      N2406   1.349       .  A
C2401      C2402   1.409       .  A
C2401      H2410   1.082       .  S
C2402      C2405   1.385       .  A
N2403      C2404   1.353       .  A
N2403      H2413   1.045       .  S
C2404      C2405   1.397       .  A
C2405      H2411   1.082       .  S
N2406      C2407   1.357       .  A
N2406      H2414   1.045       .  S
C2407      C2408   1.391       .  A
C2408      H2412   1.083       .  S
C2415      C2420   1.386       .  A
C2415      C2416   1.401       .  A
C2415      N2421   1.340       .  A
C2416      C2417   1.400       .  A
C2416      H2427   1.083       .  S
C2417      C2426   1.375       .  A
C2417      C2418   1.386       .  A
C2418      C2419   1.400       .  A
C2418      N2424   1.340       .  A
C2419      C2420   1.399       .  A
C2419      H2428   1.083       .  S
C2420      C2423   1.375       .  A
N2421      C2422   1.353       .  A
N2421      H2431   1.045       .  S
C2422      C2423   1.390       .  A
C2423      H2429   1.083       .  S
N2424      C2425   1.353       .  A
N2424      H2432   1.045       .  S
C2425      C2426   1.391       .  A
C2426      H2430   1.083       .  S
