geometry optimzed in LAMMPS
_audit_creation_date              2020-11-30 
_audit_creation_method            'lammps2cif' 
_symmetry_space_group_name_H-M    'P1' 
_symmetry_Int_Tables_number       1 
_symmetry_cell_setting            triclinic 
loop_ 
_symmetry_equiv_pos_as_xyz 
  x,y,z 
_cell_length_a                    54.61317639 
_cell_length_b                    54.28354581981956 
_cell_length_c                    57.39761208468636 
_cell_angle_alpha                 90.08240635985793 
_cell_angle_beta                  90.00273090632392 
_cell_angle_gamma                 121.65131823890452 
loop_ 
_atom_site_label 
_atom_site_type_symbol 
_atom_site_fract_x 
_atom_site_fract_y 
_atom_site_fract_z 
_atom_site_charge 
O1          O  0.37318918  0.53804362  0.57909254    -0.85800
O2          O  0.31723692  0.49483741  0.56965755    -0.82800
C3          C  0.29158583  0.47448061  0.57252866     0.97700
O4          O  0.28212439  0.46548218  0.59289833    -0.82800
O5          O  0.31577522  0.44516555  0.61151753    -0.85500
C6          C  0.33771727  0.44632106  0.61997450     1.02200
O7          O  0.35677112  0.46877642  0.63048391    -0.78200
O8          O  0.38390344  0.50798752  0.59472523    -0.78400
C9          C  0.38749220  0.52581299  0.57903914     1.02200
O10         O  0.35272240  0.55893665  0.61532390    -0.85800
O11         O  0.29710221  0.51956534  0.60304584    -0.82800
C12         C  0.28511832  0.51213139  0.62273992     0.97700
O13         O  0.28864187  0.49557690  0.63580987    -0.82800
O14         O  0.31672699  0.47124972  0.65618365    -0.85500
C15         C  0.33653708  0.49187856  0.66805637     1.02200
O16         O  0.35743752  0.51309333  0.65787551    -0.78300
O17         O  0.38867519  0.55338151  0.62370870    -0.78400
C18         C  0.37803666  0.56919160  0.62257503     1.02200
Cr19       Cr  0.33511868  0.52598580  0.59331721     1.93700
Cr20       Cr  0.30324982  0.47148317  0.62335901     1.93200
Cr21       Cr  0.36910648  0.51016284  0.62583663     1.39100
O22         O  0.33583287  0.50252274  0.61417018    -1.23500
O23         O  0.16112321  0.62522856  0.57193680    -0.85800
O24         O  0.18008763  0.68270407  0.56328814    -0.82800
C25         C  0.18740854  0.70868632  0.56659373     0.97700
O26         O  0.18810053  0.71775366  0.58718302    -0.82800
O27         O  0.13212399  0.68650431  0.60506261    -0.85500
C28         C  0.10909556  0.66467547  0.61228955     1.02200
O29         O  0.10912356  0.64358943  0.62167565    -0.78200
O30         O  0.11966427  0.61572513  0.58589784    -0.78400
C31         C  0.13401772  0.61173267  0.57076708     1.02200
O32         O  0.20109031  0.64339845  0.60973014    -0.85800
O33         O  0.22352825  0.69951220  0.59808429    -0.82800
C34         C  0.22854044  0.70997269  0.61837712     0.97700
O35         O  0.20849621  0.70797563  0.63073097    -0.82800
O36         O  0.15412624  0.68184195  0.64960817    -0.85500
C37         C  0.15289095  0.66114035  0.66091383     1.02200
O38         O  0.15022859  0.63956961  0.65016249    -0.78300
O39         O  0.15702885  0.60773296  0.61629281    -0.78400
C40         C  0.18390183  0.61808350  0.61676459     1.02200
Cr41       Cr  0.18943959  0.66265477  0.58719275     1.93700
Cr42       Cr  0.17020618  0.69604727  0.61729019     1.93200
Cr43       Cr  0.13609151  0.62926683  0.61773314     1.39100
O44         O  0.16497462  0.66264640  0.60723533    -1.23500
O45         O  0.47515408  0.84522311  0.57353877    -0.85800
O46         O  0.51789192  0.83419472  0.56569574    -0.82800
C47         C  0.53821466  0.83007264  0.56922643     0.97700
O48         O  0.54603840  0.82941116  0.58988319    -0.82800
O49         O  0.56442825  0.88416662  0.60916584    -0.85500
C50         C  0.56235589  0.90416990  0.61839350     1.02200
O51         O  0.53943511  0.89855748  0.62858522    -0.78200
O52         O  0.50241476  0.88658837  0.59177321    -0.78400
C53         C  0.48779959  0.87250106  0.57424560     1.02200
O54         O  0.45144693  0.80084079  0.60870895    -0.85800
O55         O  0.49154322  0.78711455  0.59846276    -0.82800
C56         C  0.49729168  0.78268737  0.61876874     0.97700
O57         O  0.51409241  0.80344646  0.63184488    -0.82800
O58         O  0.53710474  0.85637800  0.65264589    -0.85500
C59         C  0.51532453  0.85205288  0.66407168     1.02200
O60         O  0.49429047  0.85055752  0.65355813    -0.78300
O61         O  0.45602063  0.84197419  0.61851444    -0.78400
C62         C  0.44076109  0.81472424  0.61681608     1.02200
Cr63       Cr  0.48565796  0.81875410  0.58819555     1.93700
Cr64       Cr  0.53838785  0.84351794  0.62000943     1.93200
Cr65       Cr  0.49872875  0.86763612  0.62222628     1.39100
O66         O  0.50763711  0.84341260  0.60999241    -1.23500
O67         O  0.16661778  0.53677303  0.42761548    -0.85800
O68         O  0.18054522  0.49602978  0.43659993    -0.82800
C69         C  0.18550855  0.47606641  0.43353996     0.97700
O70         O  0.18631102  0.46767904  0.41305591    -0.82800
O71         O  0.13212663  0.44633926  0.39216337    -0.85500
C72         C  0.11132834  0.44696570  0.38308226     1.02200
O73         O  0.11551332  0.46959036  0.37310999    -0.78200
O74         O  0.12578048  0.50617102  0.41039584    -0.78400
C75         C  0.13943599  0.52225613  0.42743181     1.02200
O76         O  0.21053443  0.56105312  0.39214968    -0.85800
O77         O  0.22745974  0.52386189  0.40436103    -0.82800
C78         C  0.23337805  0.51769506  0.38475826     0.97700
O79         O  0.21347837  0.49992775  0.37138111    -0.82800
O80         O  0.16083409  0.47545769  0.34919595    -0.85500
C81         C  0.16145530  0.49585712  0.33785999     1.02200
O82         O  0.16115458  0.51615283  0.34830463    -0.78300
O83         O  0.16845979  0.55431188  0.38343949    -0.78400
C84         C  0.19554303  0.57063607  0.38448440     1.02200
Cr85       Cr  0.19437671  0.52762703  0.41351708     1.93700
Cr86       Cr  0.17281178  0.47436990  0.38222758     1.93200
Cr87       Cr  0.14475726  0.51102313  0.37977848     1.39100
O88         O  0.17062502  0.50424360  0.39183677    -1.23500
O89         O  0.38455440  0.84959940  0.43019046    -0.85800
O90         O  0.32820770  0.83446074  0.43614550    -0.82800
C91         C  0.30272113  0.82733242  0.43176545     0.97700
O92         O  0.29497076  0.82662061  0.41081646    -0.82800
O93         O  0.33090008  0.88308612  0.39377399    -0.85500
C94         C  0.35351247  0.90517245  0.38624366     1.02200
O95         O  0.37329205  0.90297983  0.37685138    -0.78200
O96         O  0.39831327  0.89135620  0.41366577    -0.78400
C97         C  0.39985783  0.87689493  0.43013922     1.02200
O98         O  0.36645028  0.80753525  0.39389223    -0.85800
O99         O  0.31039943  0.78885175  0.40234472    -0.82800
C100        C  0.30045792  0.78419129  0.38185567     0.97700
O101        O  0.30521218  0.80484978  0.36869715    -0.82800
O102        O  0.33494099  0.85978945  0.34960477    -0.85500
C103        C  0.35486232  0.85929040  0.33866162     1.02200
O104        O  0.37454439  0.85892919  0.34989343    -0.78300
O105        O  0.40347614  0.85041820  0.38553344    -0.78400
C106        C  0.39198866  0.82324413  0.38693452     1.02200
Cr107      Cr  0.34765233  0.82211046  0.41411135     1.93700
Cr108      Cr  0.31887078  0.84397364  0.38161296     1.93200
Cr109      Cr  0.38475287  0.87387511  0.38223777     1.39100
O110        O  0.35053008  0.84676407  0.39272283    -1.23500
O111        O  0.49800391  0.65245899  0.44137253    -0.85800
O112        O  0.51515293  0.70907982  0.43239665    -0.82800
C113        C  0.54215301  0.72251715  0.43404636     0.97700
O114        O  0.55672719  0.71804871  0.41951885    -0.82800
O115        O  0.56853114  0.68920433  0.38524689    -0.85500
C116        C  0.56652987  0.66701490  0.39454727     1.02200
O117        O  0.54246466  0.64563509  0.40037135    -0.78200
O118        O  0.48806037  0.61604319  0.41838650    -0.78400
C119        C  0.49126467  0.62658319  0.43874209     1.02200
O120        O  0.45292209  0.63369103  0.40759627    -0.85800
O121        O  0.47565811  0.68983104  0.39471793    -0.82800
C122        C  0.49291881  0.71499124  0.38729623     0.97700
O123        O  0.51988379  0.72519766  0.38736867    -0.82800
O124        O  0.52937928  0.69424901  0.35472881    -0.85500
C125        C  0.52533025  0.67207744  0.34413653     1.02200
O126        O  0.52095388  0.65003531  0.35540435    -0.78300
O127        O  0.46668287  0.62483719  0.37457855    -0.78400
C128        C  0.44694993  0.62262525  0.38747655     1.02200
Cr129      Cr  0.48736766  0.67120375  0.41753873     1.93700
Cr130      Cr  0.54138988  0.70399221  0.38748308     1.93200
Cr131      Cr  0.50514624  0.63676971  0.38784873     1.39100
O132        O  0.51150380  0.67074668  0.39748850    -1.23500
O133        O  0.61769266  0.48618524  0.41056677    -0.85800
O134        O  0.64911946  0.54277044  0.39750273    -0.82800
C135        C  0.67021031  0.56721619  0.39213136     0.97700
O136        O  0.69201951  0.56953372  0.38204117    -0.82800
O137        O  0.71814257  0.55304511  0.41549485    -0.85500
C138        C  0.72198694  0.53671934  0.42865772     1.02200
O139        O  0.70913310  0.50989041  0.42458496    -0.78200
O140        O  0.65242631  0.49185122  0.43352375    -0.78400
C141        C  0.62717678  0.48656210  0.43083963     1.02200
O142        O  0.62739984  0.47004463  0.36484669    -0.85800
O143        O  0.65462071  0.52680332  0.35051780    -0.82800
C144        C  0.67567540  0.53000163  0.33863330     0.97700
O145        O  0.69733226  0.53237239  0.34876695    -0.82800
O146        O  0.72693314  0.51967870  0.38068082    -0.85500
C147        C  0.71677508  0.49266314  0.37856878     1.02200
O148        O  0.69092078  0.47470386  0.38374656    -0.78300
O149        O  0.63425845  0.45129990  0.39603107    -0.78400
C150        C  0.62211845  0.44825280  0.37659909     1.02200
Cr151      Cr  0.63977951  0.50689660  0.38146200     1.93700
Cr152      Cr  0.70610579  0.54152683  0.38233015     1.93200
Cr153      Cr  0.67176355  0.48395786  0.40814877     1.39100
O154        O  0.67261151  0.51091563  0.39056968    -1.23500
O155        O  0.50206160  0.38956539  0.58776044    -0.85800
O156        O  0.46342494  0.36386339  0.62419823    -0.82800
C157        C  0.44039092  0.34382715  0.61506421     0.97700
O158        O  0.43885863  0.32136644  0.60698141    -0.82800
O159        O  0.45870091  0.28660090  0.58899895    -0.85500
C160        C  0.46734253  0.29541276  0.56840153     1.02200
O161        O  0.48785741  0.32095580  0.56503954    -0.78200
O162        O  0.53114332  0.37724775  0.57282711    -0.78400
C163        C  0.51934633  0.39195367  0.57207119     1.02200
O164        O  0.54759097  0.39519387  0.61705506    -0.85800
O165        O  0.50781670  0.36511176  0.65154408    -0.82800
C166        C  0.48712695  0.34441308  0.66232327     0.97700
O167        O  0.46590127  0.32447941  0.65112723    -0.82800
O168        O  0.48973768  0.29547269  0.63218955    -0.85500
C169        C  0.50659067  0.29187501  0.61970445     1.02200
O170        O  0.51257543  0.30184044  0.59927134    -0.78300
O171        O  0.55198391  0.35808293  0.60996150    -0.78400
C172        C  0.56277930  0.38383471  0.61673418     1.02200
Cr173      Cr  0.50445499  0.37580156  0.61934346     1.93700
Cr174      Cr  0.46540121  0.30932199  0.61892131     1.93200
Cr175      Cr  0.51908239  0.33967653  0.58824746     1.39100
O176        O  0.49614978  0.34163923  0.60872007    -1.23500
O177        O  0.50715571  0.13467184  0.41065198    -0.85800
O178        O  0.46852991  0.11927954  0.37427762    -0.82800
C179        C  0.44593601  0.11532078  0.38395247     0.97700
O180        O  0.44456017  0.13645145  0.39145007    -0.82800
O181        O  0.46440866  0.19206489  0.40864683    -0.85500
C182        C  0.47268123  0.19206238  0.42931018     1.02200
O183        O  0.49324302  0.18828592  0.43291962    -0.78200
O184        O  0.53687025  0.17779790  0.42508570    -0.78400
C185        C  0.52520581  0.15064173  0.42587179     1.02200
O186        O  0.55260599  0.17659151  0.38110194    -0.85800
O187        O  0.51292788  0.16433419  0.34678753    -0.82800
C188        C  0.49191258  0.16225934  0.33588382     0.97700
O189        O  0.47106302  0.16075420  0.34694026    -0.82800
O190        O  0.49527245  0.21562123  0.36555983    -0.85500
C191        C  0.51066818  0.23701798  0.37861796     1.02200
O192        O  0.51779872  0.23341674  0.39868510    -0.78300
O193        O  0.55770259  0.21871419  0.38814135    -0.78400
C194        C  0.56822791  0.20395472  0.38167384     1.02200
Cr195      Cr  0.50958746  0.15058918  0.37896962     1.93700
Cr196      Cr  0.47097160  0.17612708  0.37895465     1.93200
Cr197      Cr  0.52459920  0.20254153  0.40972994     1.39100
O198        O  0.50165664  0.17632184  0.38925868    -1.23500
O199        O  0.87509535  0.49232542  0.59164659    -0.85800
O200        O  0.89922214  0.54640050  0.60978974    -0.82800
C201        C  0.90199125  0.57023985  0.61502821     0.97700
O202        O  0.88101879  0.57147966  0.62322868    -0.82800
O203        O  0.84167552  0.55846697  0.58721224    -0.85500
C204        C  0.82433878  0.54347482  0.57118834     1.02200
O205        O  0.80992306  0.51631031  0.57257425    -0.78200
O206        O  0.85114714  0.50210009  0.56651025    -0.78400
C207        C  0.86995144  0.49589143  0.57076364     1.02200
O208        O  0.84048214  0.46948185  0.63359836    -0.85800
O209        O  0.86992836  0.52406589  0.65332538    -0.82800
C210        C  0.85116643  0.52680072  0.66391069     0.97700
O211        O  0.83340255  0.53020237  0.65251832    -0.82800
O212        O  0.79436102  0.51910730  0.61760018    -0.85500
C213        C  0.77715814  0.49176783  0.61671704     1.02200
O214        O  0.78560388  0.47557187  0.60929555    -0.78300
O215        O  0.82130991  0.45580623  0.59901915    -0.78400
C216        C  0.82608111  0.44963761  0.61904449     1.02200
Cr217      Cr  0.86907339  0.50857859  0.62134768     1.93700
Cr218      Cr  0.83804491  0.54269372  0.61944022     1.93200
Cr219      Cr  0.81880392  0.48941600  0.58849353     1.39100
O220        O  0.84200876  0.51379175  0.60989423    -1.23500
O221        O  0.89142448  0.39629063  0.41608124    -0.85800
O222        O  0.89951233  0.36838862  0.37898358    -0.82800
C223        C  0.90161995  0.34837066  0.38816789     0.97700
O224        O  0.87984184  0.32643043  0.39695808    -0.82800
O225        O  0.82470138  0.29298189  0.41663375    -0.85500
C226        C  0.82679566  0.30191157  0.43736375     1.02200
O227        O  0.83419661  0.32777877  0.44119632    -0.78200
O228        O  0.85111558  0.38457905  0.43387268    -0.78400
C229        C  0.87823952  0.39897446  0.43300930     1.02200
O230        O  0.85060226  0.40217390  0.38910637    -0.85800
O231        O  0.85521273  0.37025936  0.35363581    -0.82800
C232        C  0.85350690  0.34909141  0.34291218     0.97700
O233        O  0.85398293  0.32929519  0.35416706    -0.82800
O234        O  0.80066517  0.30174686  0.37523622    -0.85500
C235        C  0.78135276  0.29961797  0.38870484     1.02200
O236        O  0.78765300  0.31005127  0.40902403    -0.78300
O237        O  0.80774332  0.36628207  0.39866816    -0.78400
C238        C  0.82376913  0.39142486  0.39072637     1.02200
Cr239      Cr  0.87213452  0.38162128  0.38534140     1.93700
Cr240      Cr  0.84028570  0.31505329  0.38663554     1.93200
Cr241      Cr  0.82204255  0.34728967  0.41909227     1.39100
O242        O  0.84499966  0.34805832  0.39714493    -1.23500
O243        O  0.61567429  0.13379207  0.58722951    -0.85800
O244        O  0.63699731  0.11868858  0.62485748    -0.82800
C245        C  0.65642247  0.11550210  0.61614918     0.97700
O246        O  0.67944137  0.13700991  0.60864567    -0.82800
O247        O  0.71708601  0.19260328  0.59228207    -0.85500
C248        C  0.70969162  0.19328466  0.57149751     1.02200
O249        O  0.68543234  0.18983684  0.56721734    -0.78200
O250        O  0.63019006  0.17696244  0.57336032    -0.78400
C251        C  0.61640755  0.14981575  0.57096618     1.02200
O252        O  0.61056195  0.17385485  0.61651200    -0.85800
O253        O  0.63698128  0.16246994  0.65229370    -0.82800
C254        C  0.65668036  0.16207013  0.66351640     0.97700
O255        O  0.67631217  0.16086818  0.65280169    -0.82800
O256        O  0.71000377  0.21594476  0.63490261    -0.85500
C257        C  0.71694210  0.23709187  0.62160257     1.02200
O258        O  0.70481267  0.23333841  0.60209594    -0.78300
O259        O  0.64881122  0.21695185  0.61159831    -0.78400
C260        C  0.62271438  0.20110817  0.61731519     1.02200
Cr261      Cr  0.62764728  0.14914395  0.61953418     1.93700
Cr262      Cr  0.69326945  0.17640091  0.62130187     1.93200
Cr263      Cr  0.66693146  0.20229794  0.59015393     1.39100
O264        O  0.66265811  0.17594395  0.61034772    -1.23500
O265        O  0.65207544  0.49466353  0.06495601    -0.85800
O266        O  0.70881306  0.51264025  0.07454762    -0.82800
C267        C  0.72184540  0.53972211  0.07229094     0.97700
O268        O  0.71690134  0.55461155  0.08628311    -0.82800
O269        O  0.68795938  0.56667560  0.12081776    -0.85500
C270        C  0.66553106  0.56438374  0.11194649     1.02200
O271        O  0.64481016  0.54020325  0.10535266    -0.78200
O272        O  0.61600874  0.48482443  0.08806820    -0.78400
C273        C  0.62621025  0.48744004  0.06769453     1.02200
O274        O  0.63398949  0.45052466  0.09934954    -0.85800
O275        O  0.68955198  0.47380091  0.11271918    -0.82800
C276        C  0.71450640  0.49147004  0.12009260     0.97700
O277        O  0.72473998  0.51858212  0.11919017    -0.82800
O278        O  0.69369659  0.52803820  0.15175863    -0.85500
C279        C  0.67159972  0.52422182  0.16212681     1.02200
O280        O  0.64999928  0.52005360  0.15048920    -0.78300
O281        O  0.62568426  0.46498222  0.13226236    -0.78400
C282        C  0.62360522  0.44497596  0.11962154     1.02200
Cr283      Cr  0.67107824  0.48489479  0.08927801     1.93700
Cr284      Cr  0.70329254  0.53984424  0.11871409     1.93200
Cr285      Cr  0.63667886  0.50307360  0.11835460     1.39100
O286        O  0.67043509  0.50955050  0.10882496    -1.23500
O287        O  0.52725853  0.36840028  0.92881216    -0.85800
O288        O  0.48290235  0.31232612  0.93468591    -0.82800
C289        C  0.46267534  0.28691085  0.93045690     0.97700
O290        O  0.45519413  0.27868739  0.90959821    -0.82800
O291        O  0.43685833  0.31456200  0.89277292    -0.85500
C292        C  0.43907703  0.33798262  0.88655035     1.02200
O293        O  0.46151698  0.35747649  0.87640260    -0.78200
O294        O  0.49950635  0.38198139  0.91324428    -0.78400
C295        C  0.51615490  0.38373918  0.92925002     1.02200
O296        O  0.54916094  0.35001788  0.89204698    -0.85800
O297        O  0.50866626  0.29349106  0.90107512    -0.82800
C298        C  0.50350130  0.28398707  0.88044725     0.97700
O299        O  0.48759423  0.28843029  0.86737655    -0.82800
O300        O  0.46451220  0.31868220  0.84853854    -0.85500
C301        C  0.48621928  0.33878270  0.83798342     1.02200
O302        O  0.50665183  0.35891800  0.84940172    -0.78300
O303        O  0.54531297  0.38746393  0.88478191    -0.78400
C304        C  0.56035381  0.37597357  0.88572993     1.02200
Cr305      Cr  0.51527930  0.33124813  0.91264214     1.93700
Cr306      Cr  0.46304802  0.30237763  0.88038917     1.93200
Cr307      Cr  0.50242641  0.36876768  0.88161855     1.39100
O308        O  0.49355133  0.33420330  0.89158153    -1.23500
O309        O  0.62771200  0.16644154  0.92968055    -0.85800
O310        O  0.68370172  0.18287249  0.93670932    -0.82800
C311        C  0.70908290  0.18922575  0.93314522     0.97700
O312        O  0.71784768  0.19020888  0.91249056    -0.82800
O313        O  0.68302315  0.13457677  0.89342107    -0.85500
C314        C  0.66134948  0.11312622  0.88415026     1.02200
O315        O  0.64165022  0.11571164  0.87512244    -0.78200
O316        O  0.61573320  0.12527175  0.91267018    -0.78400
C317        C  0.61375434  0.13907082  0.92950394     1.02200
O318        O  0.64599211  0.20948758  0.89360282    -0.85800
O319        O  0.70199270  0.22879357  0.90324743    -0.82800
C320        C  0.71306190  0.23374777  0.88313903     0.97700
O321        O  0.70989776  0.21346512  0.87032150    -0.82800
O322        O  0.68017577  0.16009149  0.84984738    -0.85500
C323        C  0.66039561  0.16119137  0.83914476     1.02200
O324        O  0.64028116  0.16059434  0.85040647    -0.78300
O325        O  0.60952179  0.16621108  0.88580947    -0.78400
C326        C  0.62045901  0.19332587  0.88674249     1.02200
Cr327      Cr  0.66474763  0.19507546  0.91426998     1.93700
Cr328      Cr  0.69532632  0.17413905  0.88244839     1.93200
Cr329      Cr  0.62936936  0.14390628  0.88181447     1.39100
O330        O  0.66316717  0.17097822  0.89294498    -1.23500
O331        O  0.84849183  0.49635387  0.93710725    -0.85800
O332        O  0.80806430  0.51055942  0.93070721    -0.82800
C333        C  0.82254937  0.53780560  0.93221731     0.97700
O334        O  0.84016039  0.55282197  0.91636111    -0.82800
O335        O  0.87891459  0.56566814  0.87930290    -0.85500
C336        C  0.90055250  0.56567955  0.88749053     1.02200
O337        O  0.89808339  0.54287635  0.89531239    -0.78200
O338        O  0.87488835  0.48830262  0.91334238    -0.78400
C339        C  0.86810384  0.49112685  0.93393667     1.02200
O340        O  0.82019192  0.45041363  0.90357521    -0.85800
O341        O  0.78459286  0.46974233  0.89335327    -0.82800
C342        C  0.77551697  0.48571268  0.88701263     0.97700
O343        O  0.79245952  0.51308780  0.88662551    -0.82800
O344        O  0.83127429  0.52325188  0.85164722    -0.85500
C345        C  0.85013239  0.52155911  0.84033225     1.02200
O346        O  0.86965661  0.51998365  0.85100995    -0.78300
O347        O  0.84237864  0.46579270  0.87018728    -0.78400
C348        C  0.82501929  0.44539356  0.88312501     1.02200
Cr349      Cr  0.81716246  0.48362605  0.91466054     1.93700
Cr350      Cr  0.83620029  0.53672872  0.88424584     1.93200
Cr351      Cr  0.86921811  0.50462130  0.88325047     1.39100
O352        O  0.84088631  0.50843801  0.89392569    -1.23500
O353        O  0.53354357  0.16614489  0.07120912    -0.85800
O354        O  0.49354246  0.18157392  0.06356084    -0.82800
C355        C  0.47411735  0.18704580  0.06721773     0.97700
O356        O  0.46711315  0.18906789  0.08785184    -0.82800
O357        O  0.44281165  0.13335086  0.10522402    -0.85500
C358        C  0.44206285  0.11104089  0.11251777     1.02200
O359        O  0.46365220  0.11284506  0.12239134    -0.78200
O360        O  0.50128369  0.12435788  0.08623561    -0.78400
C361        C  0.51917276  0.13883314  0.07049492     1.02200
O362        O  0.55739649  0.20762312  0.10821467    -0.85800
O363        O  0.52197384  0.22697271  0.09749171    -0.82800
C364        C  0.51701153  0.23198513  0.11789922     0.97700
O365        O  0.49891901  0.21153672  0.13062607    -0.82800
O366        O  0.47050321  0.15661548  0.14951192    -0.85500
C367        C  0.49051335  0.15655548  0.16062851     1.02200
O368        O  0.51028002  0.15597756  0.14982360    -0.78300
O369        O  0.54880370  0.16422643  0.11558744    -0.78400
C370        C  0.56577729  0.19144477  0.11563134     1.02200
Cr371      Cr  0.52476065  0.19369310  0.08654436     1.93700
Cr372      Cr  0.47184438  0.17233320  0.11751618     1.93200
Cr373      Cr  0.50554187  0.14134151  0.11773715     1.39100
O374        O  0.50062280  0.16901046  0.10722350    -1.23500
O375        O  0.84168235  0.38201313  0.07889814    -0.85800
O376        O  0.82588385  0.32572102  0.06958352    -0.82800
C377        C  0.81946256  0.29999351  0.07246624     0.97700
O378        O  0.81924016  0.29069448  0.09282326    -0.82800
O379        O  0.87512643  0.32421325  0.11029154    -0.85500
C380        C  0.89769960  0.34687577  0.11711452     1.02200
O381        O  0.89645004  0.36666656  0.12766959    -0.78200
O382        O  0.88373834  0.39277191  0.09233249    -0.78400
C383        C  0.86876804  0.39611622  0.07743420     1.02200
O384        O  0.80167837  0.36158691  0.11663775    -0.85800
O385        O  0.78186210  0.30587904  0.10414565    -0.82800
C386        C  0.77728017  0.29452329  0.12406026     0.97700
O387        O  0.79784168  0.29797637  0.13656500    -0.82800
O388        O  0.85253130  0.32692530  0.15528075    -0.85500
C389        C  0.85300798  0.34710065  0.16691191     1.02200
O390        O  0.85428431  0.36820366  0.15654251    -0.78300
O391        O  0.84514550  0.39862301  0.12295461    -0.78400
C392        C  0.81810805  0.38729853  0.12327514     1.02200
Cr393      Cr  0.81475761  0.34391145  0.09374530     1.93700
Cr394      Cr  0.83660978  0.31235412  0.12302283     1.93200
Cr395      Cr  0.86787928  0.37896030  0.12414346     1.39100
O396        O  0.83988456  0.34506249  0.11360550    -1.23500
O397        O  0.39416324  0.52804517  0.91967003    -0.85800
O398        O  0.36666323  0.47431878  0.90060976    -0.82800
C399        C  0.34551509  0.44985011  0.89529142     0.97700
O400        O  0.32270700  0.44707362  0.88685111    -0.82800
O401        O  0.29432526  0.45996069  0.92080343    -0.85500
C402        C  0.28864728  0.47488393  0.93400904     1.02200
O403        O  0.30141139  0.50182555  0.93123105    -0.78200
O404        O  0.35719088  0.51818965  0.94172067    -0.78400
C405        C  0.38274753  0.52414886  0.93975704     1.02200
O406        O  0.38584253  0.55003134  0.87535514    -0.85800
O407        O  0.36172849  0.49608545  0.85571827    -0.82800
C408        C  0.33912538  0.48989842  0.84450512     0.97700
O409        O  0.31667968  0.48459157  0.85513793    -0.82800
O410        O  0.28656967  0.49587128  0.88711721    -0.85500
C411        C  0.29686745  0.52306273  0.88622223     1.02200
O412        O  0.32193119  0.54071640  0.89352460    -0.78300
O413        O  0.37729667  0.56345598  0.90853285    -0.78400
C414        C  0.38797620  0.56967181  0.88841293     1.02200
Cr415      Cr  0.37453247  0.51155914  0.88845387     1.93700
Cr416      Cr  0.30765255  0.47409452  0.88826180     1.93200
Cr417      Cr  0.33959116  0.52915512  0.91732639     1.39100
O418        O  0.34054485  0.50467853  0.89778905    -1.23500
O419        O  0.13807429  0.53132830  0.08940737    -0.85800
O420        O  0.11108532  0.47632500  0.10619098    -0.82800
C421        C  0.10695842  0.45208797  0.11196805     0.97700
O422        O  0.12694251  0.45001254  0.12131016    -0.82800
O423        O  0.16748876  0.46189781  0.08693934    -0.85500
C424        C  0.18584310  0.47669367  0.07156889     1.02200
O425        O  0.20134902  0.50382073  0.07344707    -0.78200
O426        O  0.16301453  0.52121261  0.06562981    -0.78400
C427        C  0.14408768  0.52750740  0.06885731     1.02200
O428        O  0.16956268  0.55125906  0.13313775    -0.85800
O429        O  0.13761131  0.49631736  0.15133865    -0.82800
C430        C  0.15566247  0.49284446  0.16241197     0.97700
O431        O  0.17388673  0.48973404  0.15157788    -0.82800
O432        O  0.21426172  0.49928203  0.11878433    -0.85500
C433        C  0.23204627  0.52653636  0.11911919     1.02200
O434        O  0.22486816  0.54352802  0.11130889    -0.78300
O435        O  0.19229152  0.56595948  0.09990524    -0.78400
C436        C  0.18776581  0.57132302  0.12031278     1.02200
Cr437      Cr  0.14109286  0.51327460  0.11934048     1.93700
Cr438      Cr  0.17033905  0.47738627  0.11892518     1.93200
Cr439      Cr  0.19345212  0.53173444  0.08900787     1.39100
O440        O  0.16822125  0.50726159  0.10917515    -1.23500
O441        O  0.11906222  0.61630936  0.90927731    -0.85800
O442        O  0.11257161  0.64496326  0.87188387    -0.82800
C443        C  0.10986796  0.66449010  0.88136258     0.97700
O444        O  0.13122262  0.68645993  0.89061420    -0.82800
O445        O  0.18582272  0.72027507  0.91182087    -0.85500
C446        C  0.18403209  0.71166137  0.93264683     1.02200
O447        O  0.17528845  0.68547863  0.93650987    -0.78200
O448        O  0.15853900  0.62857034  0.92874457    -0.78400
C449        C  0.13150372  0.61371382  0.92680946     1.02200
O450        O  0.16163182  0.61161107  0.88376036    -0.85800
O451        O  0.15851028  0.64424828  0.84818396    -0.82800
C452        C  0.15983314  0.66505080  0.83719946     0.97700
O453        O  0.15873934  0.68467938  0.84828550    -0.82800
O454        O  0.21123467  0.71217677  0.87122623    -0.85500
C455        C  0.23000909  0.71444466  0.88541436     1.02200
O456        O  0.22291332  0.70337645  0.90546967    -0.78300
O457        O  0.20359935  0.64762390  0.89507104    -0.78400
C458        C  0.18839644  0.62272066  0.88646387     1.02200
Cr459      Cr  0.13994999  0.63195336  0.87923389     1.93700
Cr460      Cr  0.17115170  0.69843735  0.88136963     1.93200
Cr461      Cr  0.18819610  0.66608538  0.91478028     1.39100
O462        O  0.16622338  0.66540244  0.89194908    -1.23500
O463        O  0.50807442  0.89074814  0.91115669    -0.85800
O464        O  0.54407429  0.89981357  0.87395105    -0.82800
C465        C  0.56701429  0.90452963  0.88355695     0.97700
O466        O  0.56807990  0.88428483  0.89340813    -0.82800
O467        O  0.54759002  0.83008518  0.91478562    -0.85500
C468        C  0.53987793  0.83147954  0.93537914     1.02200
O469        O  0.52084100  0.83759913  0.93854050    -0.78200
O470        O  0.47902111  0.85018975  0.92961411    -0.78400
C471        C  0.49178447  0.87738939  0.92811113     1.02200
O472        O  0.46005148  0.84620849  0.88527655    -0.85800
O473        O  0.49716081  0.85194437  0.85025227    -0.82800
C474        C  0.51732516  0.85187882  0.83961698     0.97700
O475        O  0.53877558  0.85495540  0.85086782    -0.82800
O476        O  0.51455168  0.80274525  0.87336553    -0.85500
C477        C  0.49726074  0.78317837  0.88708362     1.02200
O478        O  0.49282424  0.78949395  0.90718800    -0.78300
O479        O  0.45440317  0.80485678  0.89577986    -0.78400
C480        C  0.44408205  0.81909176  0.88778190     1.02200
Cr481      Cr  0.50302794  0.87036897  0.88110710     1.93700
Cr482      Cr  0.54033583  0.84338583  0.88396453     1.93200
Cr483      Cr  0.48850382  0.82238009  0.91618378     1.39100
O484        O  0.51074071  0.84553617  0.89387475    -1.23500
O485        O  0.39830257  0.89171277  0.08725289    -0.85800
O486        O  0.37197011  0.90315813  0.12311221    -0.82800
C487        C  0.35167512  0.90385505  0.11310246     0.97700
O488        O  0.32989714  0.88098207  0.10558036    -0.82800
O489        O  0.29696624  0.82436759  0.08848644    -0.85500
C490        C  0.30593361  0.82466647  0.06797553     1.02200
O491        O  0.33158715  0.83150275  0.06486039    -0.78200
O492        O  0.38806965  0.84986282  0.07287311    -0.78400
C493        C  0.40053263  0.87703570  0.07130273     1.02200
O494        O  0.40634369  0.85383612  0.11717805    -0.85800
O495        O  0.37541390  0.86146795  0.15129468    -0.82800
C496        C  0.35468833  0.86023385  0.16209939     0.97700
O497        O  0.33411015  0.85917548  0.15079520    -0.82800
O498        O  0.30613597  0.80410915  0.13217345    -0.85500
C499        C  0.30349297  0.78355140  0.11993907     1.02200
O500        O  0.31447654  0.78810910  0.09988199    -0.78300
O501        O  0.37034723  0.80971391  0.11096800    -0.78400
C502        C  0.39572685  0.82673693  0.11774395     1.02200
Cr503      Cr  0.38547703  0.87545721  0.11896256     1.93700
Cr504      Cr  0.31921298  0.84263585  0.11846602     1.93200
Cr505      Cr  0.35124310  0.82175226  0.08862113     1.39100
O506        O  0.35195953  0.84672446  0.10861505    -1.23500
O507        O  0.50571100  0.62677148  0.09445532    -0.85800
O508        O  0.54488295  0.65312462  0.13040916    -0.82800
C509        C  0.56718672  0.67215838  0.11981935     0.97700
O510        O  0.56872586  0.69468442  0.11192934    -0.82800
O511        O  0.54940290  0.72980653  0.09364158    -0.85500
C512        C  0.54011651  0.72071926  0.07319013     1.02200
O513        O  0.52000367  0.69489133  0.07012556    -0.78200
O514        O  0.47653561  0.63866393  0.07913332    -0.78400
C515        C  0.48782386  0.62345534  0.07903053     1.02200
O516        O  0.46048037  0.62225621  0.12363149    -0.85800
O517        O  0.50094520  0.65276840  0.15782909    -0.82800
C518        C  0.52206481  0.67357202  0.16816259     0.97700
O519        O  0.54280305  0.69352900  0.15653440    -0.82800
O520        O  0.51961338  0.72302250  0.13667745    -0.85500
C521        C  0.50334106  0.72700083  0.12370983     1.02200
O522        O  0.49598551  0.71528011  0.10386628    -0.78300
O523        O  0.45643947  0.65941057  0.11565719    -0.78400
C524        C  0.44546996  0.63382109  0.12285815     1.02200
Cr525      Cr  0.50373995  0.64143377  0.12571513     1.93700
Cr526      Cr  0.54308928  0.70785247  0.12394138     1.93200
Cr527      Cr  0.48906234  0.67690989  0.09369461     1.39100
O528        O  0.51201535  0.67539215  0.11444783    -1.23500
C529        C  0.41327960  0.81460631  0.12487121    -0.01700
C530        C  0.39977812  0.78641159  0.13368710    -0.09700
C531        C  0.41533089  0.77307779  0.13772479    -0.18600
C532        C  0.44499301  0.78734056  0.13243169     0.03800
C533        C  0.45872455  0.81617779  0.12385845     0.18000
C534        C  0.44297913  0.82976450  0.12075597    -0.20000
C535        C  0.48769636  0.83070506  0.11724667    -0.21200
C536        C  0.50292080  0.81667424  0.11773860    -0.19800
C537        C  0.48982385  0.78808480  0.12557364     0.19400
C538        C  0.46105425  0.77343377  0.13400786     0.01500
C539        C  0.44925790  0.74503496  0.14274103    -0.14500
C540        C  0.46441926  0.73092710  0.14117236    -0.12200
C541        C  0.49178428  0.74471185  0.13121476     0.01100
C542        C  0.50479809  0.77352171  0.12402290    -0.24400
H543        H  0.37683917  0.77432092  0.13703586     0.09100
H544        H  0.40320356  0.75114089  0.14400665     0.12600
H545        H  0.45347385  0.85147452  0.11365329     0.11400
H546        H  0.49832223  0.85268189  0.11072889     0.12600
H547        H  0.52493635  0.82809039  0.11154217     0.11600
H548        H  0.42809656  0.73286111  0.15030995     0.08700
H549        H  0.45408209  0.70853861  0.14662250     0.11900
H550        H  0.52592202  0.78402209  0.11603014     0.13800
C551        C  0.54964597  0.82147463  0.95543182    -0.01700
C552        C  0.55661804  0.80029246  0.95191959    -0.09700
C553        C  0.55940128  0.78559175  0.97075627    -0.18600
C554        C  0.55555833  0.79181942  0.99393003     0.03800
C555        C  0.55112061  0.81513792  0.99751726     0.18000
C556        C  0.54777757  0.82937636  0.97836392    -0.20000
C557        C  0.54899112  0.82337772  0.02019446    -0.21200
C558        C  0.55017571  0.80834270  0.03937301    -0.19800
C559        C  0.55250553  0.78402923  0.03637098     0.19400
C560        C  0.55513540  0.77531092  0.01359195     0.01500
C561        C  0.55544814  0.74947006  0.01144032    -0.14500
C562        C  0.55202865  0.73245334  0.03094768    -0.12200
C563        C  0.54940703  0.74113173  0.05331418     0.01100
C564        C  0.55057059  0.76744174  0.05594548    -0.24400
H565        H  0.55826105  0.79378231  0.93442367     0.09100
H566        H  0.56413875  0.76914507  0.96662714     0.12600
H567        H  0.54268949  0.84594346  0.98130215     0.11400
H568        H  0.54599881  0.84136151  0.02312011     0.12600
H569        H  0.54808090  0.81509158  0.05666272     0.11600
H570        H  0.55673114  0.74103632  0.99477772     0.08700
H571        H  0.55063927  0.71196578  0.02847908     0.11900
H572        H  0.54763374  0.77384838  0.07313055     0.13800
C573        C  0.48515223  0.89231905  0.94587460    -0.01700
C574        C  0.50244951  0.90351204  0.96567402    -0.09700
C575        C  0.49155068  0.90839010  0.98605019    -0.18600
C576        C  0.46262500  0.90128304  0.98720626     0.03800
C577        C  0.44602619  0.89186969  0.96636876     0.18000
C578        C  0.45755958  0.88789123  0.94594235    -0.20000
C579        C  0.41724213  0.88414705  0.96644581    -0.21200
C580        C  0.40380773  0.88342315  0.98715921    -0.19800
C581        C  0.41894310  0.89065198  0.00820490     0.19400
C582        C  0.44886320  0.90088390  0.00850973     0.01500
C583        C  0.46306394  0.90823028  0.03036240    -0.14500
C584        C  0.44759451  0.90292666  0.05107947    -0.12200
C585        C  0.41785043  0.89074586  0.05049839     0.01100
C586        C  0.40383128  0.88574450  0.02910966    -0.24400
H587        H  0.52368536  0.90649720  0.96590477     0.09100
H588        H  0.50567529  0.91601390  0.00094079     0.12600
H589        H  0.44407096  0.87865864  0.93061750     0.11400
H590        H  0.40462410  0.87721398  0.95055353     0.12600
H591        H  0.38110084  0.87597159  0.98684287     0.11600
H592        H  0.48579667  0.91681310  0.03207259     0.08700
H593        H  0.45858614  0.90659919  0.06760915     0.11900
H594        H  0.38066826  0.87601318  0.02881635     0.13800
C595        C  0.19765715  0.73319218  0.95174222    -0.01700
C596        C  0.22394496  0.75878720  0.94729752    -0.09700
C597        C  0.24097784  0.77677666  0.96546756    -0.18600
C598        C  0.23204542  0.77000642  0.98891133     0.03800
C599        C  0.20411931  0.74556261  0.99323179     0.18000
C600        C  0.18750476  0.72700392  0.97476344    -0.20000
C601        C  0.19345075  0.73936308  0.01604429    -0.21200
C602        C  0.21037609  0.75612945  0.03472230    -0.19800
C603        C  0.23882189  0.77885619  0.03120683     0.19400
C604        C  0.25006910  0.78613236  0.00821002     0.01500
C605        C  0.27936581  0.80811599  0.00562383    -0.14500
C606        C  0.29693550  0.82148463  0.02502843    -0.12200
C607        C  0.28593774  0.81407141  0.04770924     0.01100
C608        C  0.25655252  0.79331957  0.05061590    -0.24400
H609        H  0.23229993  0.76408193  0.92969785     0.09100
H610        H  0.26119813  0.79568129  0.96061987     0.12600
H611        H  0.16706171  0.70738756  0.97835298     0.11400
H612        H  0.17198789  0.72117024  0.01950971     0.12600
H613        H  0.20154530  0.75047817  0.05216374     0.11600
H614        H  0.28973211  0.81446889  0.98886121     0.08700
H615        H  0.31956559  0.83719768  0.02225683     0.11900
H616        H  0.24791618  0.78694076  0.06807054     0.13800
C617        C  0.41288579  0.80405061  0.88268899    -0.01700
C618        C  0.39984466  0.81950346  0.87645794    -0.09700
C619        C  0.36998413  0.80533331  0.87365698    -0.18600
C620        C  0.35216026  0.77515022  0.87729268     0.03800
C621        C  0.36566739  0.75963789  0.88329422     0.18000
C622        C  0.39560932  0.77401569  0.88553311    -0.20000
C623        C  0.34920266  0.72996888  0.88793277    -0.21200
C624        C  0.31943392  0.71551430  0.88789420    -0.19800
C625        C  0.30546130  0.73023164  0.88257565     0.19400
C626        C  0.32144216  0.75995439  0.87625468     0.01500
C627        C  0.30585671  0.77313872  0.86981028    -0.14500
C628        C  0.27575162  0.75789506  0.87126333    -0.12200
C629        C  0.26063289  0.72938467  0.87931908     0.01100
C630        C  0.27551303  0.71551310  0.88432711    -0.24400
H631        H  0.41268485  0.84276241  0.87425082     0.09100
H632        H  0.36139685  0.81868147  0.86939842     0.12600
H633        H  0.40537630  0.76178033  0.89036853     0.11400
H634        H  0.35941547  0.71804903  0.89241086     0.12600
H635        H  0.30724449  0.69273382  0.89238056     0.11600
H636        H  0.31636152  0.79525646  0.86395798     0.08700
H637        H  0.26442986  0.76882163  0.86722174     0.11900
H638        H  0.26366822  0.69327176  0.89034990     0.13800
C639        C  0.11571392  0.59200504  0.94495584    -0.01700
C640        C  0.11430085  0.56560449  0.94325923    -0.09700
C641        C  0.11157747  0.54968571  0.96322689    -0.18600
C642        C  0.11088602  0.56025232  0.98561998     0.03800
C643        C  0.10874355  0.58522433  0.98692489     0.18000
C644        C  0.11118257  0.60086028  0.96660948    -0.20000
C645        C  0.10677972  0.59585497  0.00863431    -0.21200
C646        C  0.10943434  0.58376556  0.02913599    -0.19800
C647        C  0.11470736  0.56115633  0.02838812     0.19400
C648        C  0.11462646  0.54846639  0.00664585     0.01500
C649        C  0.12079349  0.52621063  0.00675372    -0.14500
C650        C  0.12909510  0.51868578  0.02720939    -0.12200
C651        C  0.13066384  0.53231877  0.04835855     0.01100
C652        C  0.12205642  0.55253354  0.04905361    -0.24400
H653        H  0.11798090  0.55857688  0.92664264     0.09100
H654        H  0.11178224  0.53013202  0.96064393     0.12600
H655        H  0.11257104  0.62149355  0.96794590     0.11400
H656        H  0.10452374  0.61450373  0.00976469     0.12600
H657        H  0.10903793  0.59328344  0.04563507     0.11600
H658        H  0.12090649  0.51525303  0.99113486     0.08700
H659        H  0.13518324  0.50265060  0.02633837     0.11900
H660        H  0.12321790  0.56318646  0.06537640     0.13800
C661        C  0.28761441  0.75364006  0.12826861    -0.01700
C662        C  0.25939502  0.74065437  0.13638389    -0.09700
C663        C  0.24272680  0.71062456  0.13946443    -0.18600
C664        C  0.25411333  0.69298658  0.13444805     0.03800
C665        C  0.28360857  0.70695832  0.12803717     0.18000
C666        C  0.29989723  0.73691162  0.12499674    -0.20000
C667        C  0.29639808  0.69090951  0.12349619    -0.21200
C668        C  0.28006583  0.66096879  0.12372887    -0.19800
C669        C  0.25057480  0.64649570  0.12829081     0.19400
C670        C  0.23717189  0.66209051  0.13438864     0.01500
C671        C  0.20716553  0.64602948  0.13880697    -0.14500
C672        C  0.19101190  0.61594786  0.13581424    -0.12200
C673        C  0.20438394  0.60133811  0.12839512     0.01100
C674        C  0.23414479  0.61651449  0.12542573    -0.24400
H675        H  0.24972715  0.75349024  0.13904567     0.09100
H676        H  0.22082890  0.70177727  0.14503698     0.12600
H677        H  0.32196485  0.74720514  0.11895714     0.11400
H678        H  0.31898654  0.70157670  0.11896426     0.12600
H679        H  0.29034495  0.64905614  0.11938733     0.11600
H680        H  0.19544988  0.65618345  0.14367879     0.08700
H681        H  0.16788171  0.60434371  0.13801324     0.11900
H682        H  0.24434625  0.60501551  0.11959526     0.13800
C683        C  0.26215431  0.53952832  0.12730552    -0.01700
C684        C  0.27717068  0.56847600  0.13464845    -0.09700
C685        C  0.30682403  0.58363372  0.13797647    -0.18600
C686        C  0.32279249  0.57038877  0.13379801     0.03800
C687        C  0.30729037  0.54029293  0.12843626     0.18000
C688        C  0.27712846  0.52507494  0.12534146    -0.20000
C689        C  0.32219890  0.52601350  0.12510631    -0.21200
C690        C  0.35217965  0.54125983  0.12572413    -0.19800
C691        C  0.36806039  0.57126974  0.12930108     0.19400
C692        C  0.35356334  0.58619447  0.13378165     0.01500
C693        C  0.37047483  0.61657860  0.13670479    -0.14500
C694        C  0.40026984  0.63160962  0.13402858    -0.12200
C695        C  0.41445128  0.61701311  0.12883686     0.01100
C696        C  0.39829088  0.58667634  0.12729102    -0.24400
H697        H  0.26599876  0.57988991  0.13708984     0.09100
H698        H  0.31664178  0.60591279  0.14325229     0.12600
H699        H  0.26567560  0.50258004  0.11994952     0.11400
H700        H  0.31062432  0.50302242  0.12137040     0.12600
H701        H  0.36303700  0.52965649  0.12248500     0.11600
H702        H  0.36130268  0.62959148  0.14013372     0.08700
H703        H  0.41224403  0.65498867  0.13549246     0.11900
H704        H  0.40904915  0.57518016  0.12314164     0.13800
C705        C  0.19025279  0.46335745  0.05099368    -0.01700
C706        C  0.20473807  0.44848812  0.05275552    -0.09700
C707        C  0.21665595  0.44366722  0.03288435    -0.18600
C708        C  0.21462701  0.45405644  0.01076299     0.03800
C709        C  0.19774870  0.46696944  0.00908995     0.18000
C710        C  0.18582257  0.47141767  0.02906764    -0.20000
C711        C  0.19440485  0.47720822  0.98774519    -0.21200
C712        C  0.20893666  0.47663987  0.96817008    -0.19800
C713        C  0.22737347  0.46607847  0.96953520     0.19400
C714        C  0.23003110  0.45387152  0.99058639     0.01500
C715        C  0.24948825  0.44397585  0.99077491    -0.14500
C716        C  0.26717526  0.44830545  0.97147417    -0.12200
C717        C  0.26546135  0.46202668  0.95147118     0.01100
C718        C  0.24468387  0.46962785  0.95031752    -0.24400
H719        H  0.20853825  0.44235217  0.06970371     0.09100
H720        H  0.22839716  0.43296653  0.03549238     0.12600
H721        H  0.17473352  0.48311119  0.02780726     0.11400
H722        H  0.18130588  0.48675178  0.98637186     0.12600
H723        H  0.20674202  0.48575480  0.95208090     0.11600
H724        H  0.25256004  0.43425630  0.00597730     0.08700
H725        H  0.28344064  0.44267002  0.97276161     0.11900
H726        H  0.24355193  0.48048005  0.93484661     0.13800
C727        C  0.47660090  0.59956230  0.06229063    -0.01700
C728        C  0.44798200  0.57720655  0.06484073    -0.09700
C729        C  0.43314128  0.55867913  0.04638480    -0.18600
C730        C  0.44644541  0.56260656  0.02444660     0.03800
C731        C  0.47644304  0.58335179  0.02272232     0.18000
C732        C  0.49134225  0.60169763  0.04171073    -0.20000
C733        C  0.49072639  0.58705724  0.00155336    -0.21200
C734        C  0.47538074  0.57261463  0.98155059    -0.19800
C735        C  0.44536293  0.55456161  0.98219376     0.19400
C736        C  0.43062430  0.54841797  0.00384718     0.01500
C737        C  0.40034981  0.53026250  0.00366503    -0.14500
C738        C  0.38522244  0.52100406  0.98278623    -0.12200
C739        C  0.39959387  0.52898660  0.96134408     0.01100
C740        C  0.42978155  0.54438120  0.96118538    -0.24400
H741        H  0.43646685  0.57523351  0.08080235     0.09100
H742        H  0.41092263  0.54249343  0.04957060     0.12600
H743        H  0.51358426  0.61910755  0.03980247     0.11400
H744        H  0.51369799  0.60225327  0.00020303     0.12600
H745        H  0.48687453  0.57695031  0.96521258     0.11600
H746        H  0.38750279  0.52403903  0.01925604     0.08700
H747        H  0.36193066  0.50853552  0.98347711     0.11900
H748        H  0.44112638  0.55041312  0.94469229     0.13800
C749        C  0.40247013  0.60000995  0.88099770    -0.01700
C750        C  0.42927916  0.61388651  0.86999550    -0.09700
C751        C  0.44461028  0.64397402  0.86688443    -0.18600
C752        C  0.43326513  0.66077814  0.87473000     0.03800
C753        C  0.40502195  0.64589934  0.88426434     0.18000
C754        C  0.39008302  0.61594996  0.88726618    -0.20000
C755        C  0.39224587  0.66103347  0.89184682    -0.21200
C756        C  0.40761137  0.69095924  0.89161218    -0.19800
C757        C  0.43608399  0.70634013  0.88386170     0.19400
C758        C  0.44919877  0.69171478  0.87458559     0.01500
C759        C  0.47806287  0.70878994  0.86675083    -0.14500
C760        C  0.49368520  0.73895851  0.86954592    -0.12200
C761        C  0.48089354  0.75259886  0.88021746     0.01100
C762        C  0.45192230  0.73632651  0.88649366    -0.24400
H763        H  0.43899675  0.60169760  0.86489522     0.09100
H764        H  0.46556126  0.65355399  0.85898732     0.12600
H765        H  0.36901636  0.60501137  0.89541273     0.11400
H766        H  0.37055669  0.64966940  0.89877441     0.12600
H767        H  0.39751249  0.70215928  0.89837103     0.11600
H768        H  0.48934957  0.69938235  0.85913917     0.08700
H769        H  0.51609370  0.75141394  0.86443073     0.11900
H770        H  0.44193479  0.74706080  0.89442004     0.13800
C771        C  0.20227197  0.60649093  0.88038327    -0.01700
C772        C  0.23091287  0.62167654  0.87300558    -0.09700
C773        C  0.24582287  0.60758953  0.86976648    -0.18600
C774        C  0.23266251  0.57768080  0.87439082     0.03800
C775        C  0.20317445  0.56205993  0.88101894     0.18000
C776        C  0.18812715  0.57647550  0.88358838    -0.20000
C777        C  0.18931930  0.53246741  0.88604419    -0.21200
C778        C  0.20448409  0.51834923  0.88575752    -0.19800
C779        C  0.23383136  0.53343294  0.88029580     0.19400
C780        C  0.24812434  0.56312340  0.87385286     0.01500
C781        C  0.27768296  0.57735643  0.86826771    -0.14500
C782        C  0.29288150  0.56349044  0.87094483    -0.12200
C783        C  0.27916782  0.53484777  0.87874823     0.01100
C784        C  0.24936608  0.51947127  0.88241704    -0.24400
H785        H  0.24205884  0.64480466  0.87006505     0.09100
H786        H  0.26788205  0.62100594  0.86435949     0.12600
H787        H  0.16592744  0.56465247  0.88937758     0.11400
H788        H  0.16682013  0.52036183  0.89096535     0.12600
H789        H  0.19337197  0.49567285  0.89050525     0.11600
H790        H  0.29000374  0.59951223  0.86256153     0.08700
H791        H  0.31584654  0.57566922  0.86768805     0.11900
H792        H  0.23863944  0.49729829  0.88852017     0.13800
C793        C  0.92621529  0.35127018  0.11273868    -0.01700
C794        C  0.94046240  0.34566247  0.13021503    -0.09700
C795        C  0.96992608  0.35621584  0.12839049    -0.18600
C796        C  0.98611686  0.37353485  0.10922465     0.03800
C797        C  0.97095877  0.37768756  0.09097562     0.18000
C798        C  0.94125931  0.36629032  0.09279652    -0.20000
C799        C  0.98579594  0.39487568  0.07174349    -0.21200
C800        C  0.01562414  0.40989560  0.07101694    -0.19800
C801        C  0.03128841  0.40786526  0.08940881     0.19400
C802        C  0.01688560  0.38867533  0.10828130     0.01500
C803        C  0.03405957  0.38706459  0.12603878    -0.14500
C804        C  0.06401370  0.40600078  0.12626152    -0.12200
C805        C  0.07757026  0.42677218  0.10875611     0.01100
C806        C  0.06125646  0.42647197  0.08978678    -0.24400
H807        H  0.92904620  0.33427265  0.14585449     0.09100
H808        H  0.97968498  0.35177649  0.14279712     0.12600
H809        H  0.93018967  0.37095103  0.07944394     0.11400
H810        H  0.97433357  0.39784346  0.05768383     0.12600
H811        H  0.02655654  0.42417188  0.05642043     0.11600
H812        H  0.02485857  0.37232510  0.14049730     0.08700
H813        H  0.07628201  0.40576469  0.14099546     0.11900
H814        H  0.07178352  0.44227702  0.07598944     0.13800
C815        C  0.41605505  0.08219937  0.11062978    -0.01700
C816        C  0.40279524  0.06748285  0.13116877    -0.09700
C817        C  0.38532325  0.03741303  0.13135297    -0.18600
C818        C  0.38151423  0.02109884  0.11096440     0.03800
C819        C  0.39258829  0.03637956  0.08966208     0.18000
C820        C  0.40954891  0.06682831  0.08964575    -0.20000
C821        C  0.38871916  0.02115080  0.06890918    -0.21200
C822        C  0.37618901  0.99123167  0.06914100    -0.19800
C823        C  0.36756821  0.97590590  0.09016764     0.19400
C824        C  0.36925552  0.99049451  0.11129753     0.01500
C825        C  0.36090763  0.97423541  0.13216288    -0.14500
C826        C  0.35364135  0.94549772  0.13229686    -0.12200
C827        C  0.35340099  0.93172988  0.11167329     0.01100
C828        C  0.35918032  0.94653491  0.09049294    -0.24400
H829        H  0.40765982  0.07919074  0.14750752     0.09100
H830        H  0.37651426  0.02759659  0.14798864     0.12600
H831        H  0.42008918  0.07831138  0.07375507     0.11400
H832        H  0.39664387  0.03258909  0.05254360     0.12600
H833        H  0.37463420  0.98023215  0.05293061     0.11600
H834        H  0.36125418  0.98344799  0.14887455     0.08700
H835        H  0.34921797  0.93422011  0.14878160     0.11900
H836        H  0.35929522  0.93585628  0.07454288     0.13800
C837        C  0.59602082  0.20451031  0.12311403    -0.01700
C838        C  0.60862981  0.18780025  0.12480195    -0.09700
C839        C  0.63809225  0.20086505  0.12914628    -0.18600
C840        C  0.65589566  0.23122791  0.13186194     0.03800
C841        C  0.64252632  0.24774640  0.13156755     0.18000
C842        C  0.61296546  0.23433044  0.12730033    -0.20000
C843        C  0.65887201  0.27776916  0.13459001    -0.21200
C844        C  0.68855392  0.29208113  0.13660616    -0.19800
C845        C  0.70255521  0.27670003  0.13555341     0.19400
C846        C  0.68652060  0.24598737  0.13379831     0.01500
C847        C  0.70203309  0.23170700  0.13269675    -0.14500
C848        C  0.73212169  0.24748369  0.13159456    -0.12200
C849        C  0.74739516  0.27769047  0.13196819     0.01100
C850        C  0.73263186  0.29209600  0.13476338    -0.24400
H851        H  0.59588852  0.16463961  0.12192642     0.09100
H852        H  0.64639324  0.18672675  0.12971415     0.12600
H853        H  0.60328675  0.24737717  0.12650894     0.11400
H854        H  0.64871437  0.29038720  0.13465978     0.12600
H855        H  0.70073169  0.31547025  0.13814372     0.11600
H856        H  0.69154007  0.20851153  0.13154547     0.08700
H857        H  0.74335320  0.23614004  0.12899054     0.11900
H858        H  0.74462268  0.31556760  0.13468746     0.13800
C859        C  0.92983289  0.59129470  0.88616284    -0.01700
C860        C  0.94290182  0.60120487  0.86440764    -0.09700
C861        C  0.97290605  0.61837332  0.86254719    -0.18600
C862        C  0.99065186  0.62601144  0.88256862     0.03800
C863        C  0.97694133  0.61819991  0.90469739     0.18000
C864        C  0.94685741  0.60076054  0.90625833    -0.20000
C865        C  0.99334792  0.62632618  0.92513200    -0.21200
C866        C  0.02316770  0.64083088  0.92412244    -0.19800
C867        C  0.03727579  0.64677384  0.90265854     0.19400
C868        C  0.02129255  0.63970113  0.88150505     0.01500
C869        C  0.03647078  0.64468166  0.86033667    -0.14500
C870        C  0.06579420  0.65443206  0.86034296    -0.12200
C871        C  0.08112619  0.66067572  0.88127161     0.01100
C872        C  0.06705236  0.65792871  0.90230172    -0.24400
H873        H  0.93003132  0.59380459  0.84866300     0.09100
H874        H  0.98161512  0.62448747  0.84520829     0.12600
H875        H  0.93670872  0.59290549  0.92310287     0.11400
H876        H  0.98300002  0.62075430  0.94204290     0.12600
H877        H  0.03518762  0.64618135  0.94028228     0.11600
H878        H  0.02596843  0.63964753  0.84359464     0.08700
H879        H  0.07638826  0.65614711  0.84392808     0.11900
H880        H  0.07880702  0.66209827  0.91852087     0.13800
C881        C  0.88054069  0.48570873  0.95480384    -0.01700
C882        C  0.89208095  0.46798158  0.95391425    -0.09700
C883        C  0.89709428  0.45738088  0.97450486    -0.18600
C884        C  0.89015594  0.46390110  0.99656408     0.03800
C885        C  0.88053932  0.48367979  0.99722003     0.18000
C886        C  0.87648552  0.49474566  0.97657388    -0.20000
C887        C  0.87301262  0.49082860  0.01834217    -0.21200
C888        C  0.87282180  0.47717671  0.03877760    -0.19800
C889        C  0.88051072  0.45634685  0.03859425     0.19400
C890        C  0.89045375  0.45017287  0.01776301     0.01500
C891        C  0.89838870  0.42917073  0.01891074    -0.14500
C892        C  0.89392760  0.41310179  0.03927582    -0.12200
C893        C  0.88189597  0.41787518  0.05895492     0.01100
C894        C  0.87641135  0.44026591  0.05883058    -0.24400
H895        H  0.89558887  0.46086510  0.93728920     0.09100
H896        H  0.90498268  0.44298522  0.97255706     0.12600
H897        H  0.86804078  0.50890069  0.97745886     0.11400
H898        H  0.86587539  0.50607034  0.01889120     0.12600
H899        H  0.86554247  0.48214319  0.05467999     0.11600
H900        H  0.90681908  0.42380004  0.00408192     0.08700
H901        H  0.89806730  0.39564740  0.03914153     0.11900
H902        H  0.86692015  0.44375941  0.07413376     0.13800
C903        C  0.65888874  0.08489681  0.88230717    -0.01700
C904        C  0.65035238  0.07024735  0.86100808    -0.09700
C905        C  0.64215900  0.04133279  0.85940867    -0.18600
C906        C  0.64119677  0.02574103  0.87944927     0.03800
C907        C  0.65148924  0.04118587  0.90082769     0.18000
C908        C  0.66099136  0.07083492  0.90193430    -0.20000
C909        C  0.65005051  0.02642793  0.92127213    -0.21200
C910        C  0.63620992  0.99635040  0.92138018    -0.19800
C911        C  0.62412142  0.98039976  0.90092388     0.19400
C912        C  0.62797317  0.99502650  0.87942208     0.01500
C913        C  0.61644696  0.97808468  0.85906890    -0.14500
C914        C  0.59850475  0.94816147  0.86048741    -0.12200
C915        C  0.59228603  0.93407833  0.88199863     0.01100
C916        C  0.60645657  0.94998811  0.90201984    -0.24400
H917        H  0.64894494  0.08099907  0.84561717     0.09100
H918        H  0.63502491  0.03145100  0.84250695     0.12600
H919        H  0.66750523  0.08221536  0.91846476     0.11400
H920        H  0.65815495  0.03804665  0.93757401     0.12600
H921        H  0.63389874  0.98543186  0.93776046     0.11600
H922        H  0.61976158  0.98733106  0.84191252     0.08700
H923        H  0.58811760  0.93602549  0.84477315     0.11900
H924        H  0.60169136  0.93905343  0.91869712     0.13800
C925        C  0.59446845  0.12405705  0.94911222    -0.01700
C926        C  0.56543074  0.11514187  0.94748836    -0.09700
C927        C  0.54892220  0.10958626  0.96763523    -0.18600
C928        C  0.56145057  0.11356812  0.98999898     0.03800
C929        C  0.59034165  0.12020874  0.99124814     0.18000
C930        C  0.60641985  0.12516990  0.97086540    -0.20000
C931        C  0.60387132  0.12432928  0.01281701    -0.21200
C932        C  0.59032708  0.12468531  0.03314714    -0.19800
C933        C  0.56290971  0.12076841  0.03234157     0.19400
C934        C  0.54741322  0.11374724  0.01097940     0.01500
C935        C  0.51953944  0.10961638  0.01138658    -0.14500
C936        C  0.50898628  0.11536637  0.03157118    -0.12200
C937        C  0.52559739  0.12464967  0.05184976     0.01100
C938        C  0.55184865  0.12604277  0.05247204    -0.24400
H939        H  0.55605236  0.11449595  0.93068813     0.09100
H940        H  0.52700793  0.10393241  0.96516517     0.12600
H941        H  0.62906123  0.13239670  0.97199808     0.11400
H942        H  0.62570112  0.12892101  0.01385859     0.12600
H943        H  0.60197408  0.12952855  0.04946816     0.11600
H944        H  0.50606386  0.10345200  0.99613094     0.08700
H945        H  0.48863092  0.11432026  0.03092238     0.11900
H946        H  0.56469363  0.13343166  0.06826442     0.13800
C947        C  0.72928139  0.19943993  0.95304678    -0.01700
C948        C  0.71989027  0.18704610  0.97511109    -0.09700
C949        C  0.73651548  0.20049946  0.99496748    -0.18600
C950        C  0.76269681  0.22756291  0.99343836     0.03800
C951        C  0.77243327  0.23960854  0.97087465     0.18000
C952        C  0.75612693  0.22512010  0.95096542    -0.20000
C953        C  0.79750453  0.26687537  0.96838409    -0.21200
C954        C  0.81242549  0.28312154  0.98785435    -0.19800
C955        C  0.80307340  0.27223588  0.01031752     0.19400
C956        C  0.77869991  0.24386828  0.01346261     0.01500
C957        C  0.77092344  0.23354783  0.03655192    -0.14500
C958        C  0.78563957  0.25126833  0.05563190    -0.12200
C959        C  0.80835884  0.27985607  0.05240163     0.01100
C960        C  0.81736871  0.28998225  0.02967935    -0.24400
H961        H  0.69905733  0.16734874  0.97709502     0.09100
H962        H  0.72755217  0.18993517  0.01136099     0.12600
H963        H  0.76317732  0.23515882  0.93398074     0.11400
H964        H  0.80504108  0.27618656  0.95125396     0.12600
H965        H  0.83115960  0.30458541  0.98532100     0.11600
H966        H  0.75325921  0.21205964  0.04044800     0.08700
H967        H  0.77816041  0.24302679  0.07303387     0.11900
H968        H  0.83501847  0.31206729  0.02706384     0.13800
C969        C  0.80922657  0.41544873  0.87478112    -0.01700
C970        C  0.82316518  0.40170855  0.86653407    -0.09700
C971        C  0.80753736  0.37170596  0.86279848    -0.18600
C972        C  0.77755591  0.35497071  0.86727140     0.03800
C973        C  0.76354986  0.36990145  0.87357955     0.18000
C974        C  0.77944853  0.39970486  0.87733847    -0.20000
C975        C  0.73394557  0.35489734  0.87758263    -0.21200
C976        C  0.71806690  0.32499368  0.87737918    -0.19800
C977        C  0.73158053  0.30954894  0.87340774     0.19400
C978        C  0.76122382  0.32405430  0.86731763     0.01500
C979        C  0.77340920  0.30693636  0.86320424    -0.14500
C980        C  0.75734824  0.27699203  0.86702767    -0.12200
C981        C  0.72897750  0.26366866  0.87492382     0.01100
C982        C  0.71591390  0.27974321  0.87706925    -0.24400
H983        H  0.84628854  0.41387337  0.86421948     0.09100
H984        H  0.81955574  0.36210090  0.85727666     0.12600
H985        H  0.76877565  0.41060750  0.88343532     0.11400
H986        H  0.72326026  0.36633737  0.88203150     0.12600
H987        H  0.69535470  0.31389399  0.88158504     0.16400
H988        H  0.79551284  0.31621418  0.85801490     0.08700
H989        H  0.76752811  0.26453676  0.86503430     0.11900
H990        H  0.69370414  0.26910294  0.88279066     0.13800
C991        C  0.34899257  0.42482956  0.89788479    -0.01700
C992        C  0.36266946  0.42272201  0.91774725    -0.09700
C993        C  0.37239829  0.40352627  0.91844858    -0.18600
C994        C  0.36974111  0.38655765  0.89877870     0.03800
C995        C  0.35491361  0.38809606  0.87895112     0.18000
C996        C  0.34395620  0.40649468  0.87895518    -0.20000
C997        C  0.35296763  0.37291498  0.85861468    -0.21200
C998        C  0.36714491  0.35790373  0.85692433    -0.19800
C999        C  0.38285063  0.35691435  0.87578389     0.19400
C1000       C  0.38313427  0.36991947  0.89739697     0.01500
C1001       C  0.39811123  0.36692577  0.91625055    -0.14500
C1002       C  0.41437304  0.35408189  0.91307372    -0.12200
C1003       C  0.41601602  0.34370799  0.89118840     0.01100
C1004       C  0.39953276  0.34432260  0.87280069    -0.24400
H1005       H  0.36692799  0.43693476  0.93248841     0.09100
H1006       H  0.38346900  0.40380494  0.93408042     0.12600
H1007       H  0.33391528  0.40854576  0.86338064     0.11400
H1008       H  0.34163200  0.37387778  0.84347977     0.12600
H1009       H  0.36643968  0.34762221  0.84052991     0.11600
H1010       H  0.39833892  0.37502573  0.93345484     0.08700
H1011       H  0.42710057  0.35380689  0.92744519     0.11900
H1012       H  0.40090408  0.33633311  0.85582122     0.13800
C1013       C  0.45126280  0.26586582  0.94965594    -0.01700
C1014       C  0.44666855  0.23823151  0.94610274    -0.09700
C1015       C  0.44431500  0.22101124  0.96502986    -0.18600
C1016       C  0.44639417  0.23105999  0.98811185     0.03800
C1017       C  0.44733521  0.25749921  0.99148959     0.18000
C1018       C  0.45019191  0.27482358  0.97231266    -0.20000
C1019       C  0.44715156  0.26728049  0.01401004    -0.21200
C1020       C  0.44788714  0.25226858  0.03331654    -0.19800
C1021       C  0.45010206  0.22789245  0.03048650     0.19400
C1022       C  0.44914835  0.21673832  0.00784923     0.01500
C1023       C  0.45347218  0.19329469  0.00583828    -0.14500
C1024       C  0.46033000  0.18272003  0.02533102    -0.12200
C1025       C  0.46191851  0.19433262  0.04744018     0.01100
C1026       C  0.45544010  0.21595508  0.05004950    -0.24400
H1027       H  0.44714002  0.23079728  0.92867115     0.09100
H1028       H  0.44174123  0.20035670  0.96107712     0.12600
H1029       H  0.45325861  0.29604350  0.97506475     0.11400
H1030       H  0.44724704  0.28709781  0.01670259     0.12600
H1031       H  0.44846732  0.26078428  0.05053748     0.11600
H1032       H  0.45352897  0.18392198  0.98928933     0.08700
H1033       H  0.46528392  0.16598023  0.02301957     0.11900
H1034       H  0.45707599  0.22529552  0.06712833     0.13800
C1035       C  0.74441068  0.47175380  0.88178543    -0.01700
C1036       C  0.73075560  0.48753126  0.88123286    -0.09700
C1037       C  0.70072503  0.47329213  0.87942678    -0.18600
C1038       C  0.68343644  0.44267535  0.87821845     0.03800
C1039       C  0.69766087  0.42703313  0.87772373     0.18000
C1040       C  0.72764538  0.44156691  0.87938637    -0.20000
C1041       C  0.68191294  0.39682023  0.87623108    -0.21200
C1042       C  0.65212103  0.38153647  0.87598558    -0.19800
C1043       C  0.63734452  0.39610060  0.87733125     0.19400
C1044       C  0.65264866  0.42688096  0.87810675     0.01500
C1045       C  0.63639847  0.44029835  0.87946952    -0.14500
C1046       C  0.60636742  0.42377237  0.88095868    -0.12200
C1047       C  0.59161508  0.39346080  0.88109413     0.01100
C1048       C  0.60726962  0.37985744  0.87868883    -0.24400
H1049       H  0.74320417  0.51086928  0.88299844     0.09100
H1050       H  0.69165255  0.48676069  0.87950255     0.12600
H1051       H  0.73790155  0.42907493  0.87949558     0.11400
H1052       H  0.69270077  0.38486072  0.87563692     0.12600
H1053       H  0.64055127  0.35810049  0.87524508     0.11600
H1054       H  0.64628614  0.46345686  0.87999165     0.08700
H1055       H  0.59474199  0.43481927  0.88283076     0.11900
H1056       H  0.59607039  0.35642682  0.87862555     0.13800
C1057       C  0.51763143  0.26886165  0.87222983    -0.01700
C1058       C  0.54653546  0.28552781  0.86571790    -0.09700
C1059       C  0.56360041  0.27340628  0.86480843    -0.18600
C1060       C  0.55217072  0.24405692  0.87069949     0.03800
C1061       C  0.52212132  0.22662207  0.87522816     0.18000
C1062       C  0.50520561  0.23920950  0.87620763    -0.20000
C1063       C  0.50949983  0.19708546  0.87989970    -0.21200
C1064       C  0.52623219  0.18468847  0.88106010    -0.19800
C1065       C  0.55613234  0.20169174  0.87831768     0.19400
C1066       C  0.56957364  0.23165263  0.87309633     0.01500
C1067       C  0.59996667  0.24818116  0.87174945    -0.14500
C1068       C  0.61625511  0.23559135  0.87585726    -0.12200
C1069       C  0.60292129  0.20604787  0.88094461     0.01100
C1070       C  0.57277707  0.18911689  0.88167623    -0.24400
H1071       H  0.55640866  0.30851831  0.86266116     0.09100
H1072       H  0.58582592  0.28775179  0.86008065     0.12600
H1073       H  0.48284782  0.22635960  0.88150600     0.11400
H1074       H  0.48657979  0.18356207  0.88306836     0.12600
H1075       H  0.51582403  0.16182811  0.88499749     0.11600
H1076       H  0.61186328  0.27111515  0.86836260     0.08700
H1077       H  0.63949124  0.24916321  0.87521222     0.11900
H1078       H  0.56225156  0.16631185  0.88590871     0.13800
C1079       C  0.66187760  0.58942780  0.11081952    -0.01700
C1080       C  0.65252132  0.59548240  0.09012246    -0.09700
C1081       C  0.64247763  0.61447122  0.08995594    -0.18600
C1082       C  0.64025110  0.62702553  0.11086033     0.03800
C1083       C  0.65072064  0.62149829  0.13170160     0.18000
C1084       C  0.66215653  0.60350967  0.13135665    -0.20000
C1085       C  0.64779170  0.63220904  0.15304052    -0.21200
C1086       C  0.63283649  0.64646464  0.15442842    -0.19800
C1087       C  0.62120239  0.65116103  0.13440829     0.19400
C1088       C  0.62604617  0.64292377  0.11216397     0.01500
C1089       C  0.61512027  0.64968391  0.09239722    -0.14500
C1090       C  0.59788887  0.66160733  0.09485122    -0.12200
C1091       C  0.59104963  0.66709398  0.11696139     0.01100
C1092       C  0.60348529  0.66269387  0.13661764    -0.24400
H1093       H  0.65191438  0.58453412  0.07413417     0.09100
H1094       H  0.63494308  0.61744370  0.07346584     0.12600
H1095       H  0.66879676  0.59832792  0.14750189     0.11400
H1096       H  0.65583125  0.62823086  0.16896587     0.12600
H1097       H  0.62967346  0.65317211  0.17138567     0.11600
H1098       H  0.61888835  0.64528928  0.07487383     0.08700
H1099       H  0.58841992  0.66487472  0.07948015     0.11900
H1100       H  0.59825512  0.66704763  0.15377039     0.13800
C1101       C  0.74407182  0.55281578  0.05392695    -0.01700
C1102       C  0.73916458  0.56318747  0.03324948    -0.09700
C1103       C  0.75586932  0.56727155  0.01333093    -0.18600
C1104       C  0.77775448  0.56058897  0.01350972     0.03800
C1105       C  0.78387120  0.55213739  0.03512557     0.18000
C1106       C  0.76712398  0.54839739  0.05493483    -0.20000
C1107       C  0.80544958  0.54561118  0.03656277    -0.21200
C1108       C  0.81983462  0.54533102  0.01668977    -0.19800
C1109       C  0.81294444  0.55146308  0.99484245     0.19400
C1110       C  0.79253418  0.56015728  0.99293293     0.01500
C1111       C  0.78655690  0.56613168  0.97031758    -0.14500
C1112       C  0.79856570  0.56140935  0.95045852    -0.12200
C1113       C  0.81715646  0.55106372  0.95251057     0.01100
C1114       C  0.82497536  0.54705973  0.97475961    -0.24400
H1115       H  0.72118233  0.56631950  0.03203446     0.09100
H1116       H  0.75031233  0.57439473  0.99778986     0.12600
H1117       H  0.77074376  0.54002458  0.07087277     0.11400
H1118       H  0.81045181  0.53953728  0.05305864     0.12600
H1119       H  0.83561791  0.53905989  0.01829856     0.11600
H1120       H  0.77164473  0.57313509  0.96737435     0.08700
H1121       H  0.79185960  0.56409320  0.93336928     0.11900
H1122       H  0.83900641  0.53858363  0.97636558     0.13800
C1123       C  0.60725530  0.47916622  0.04708257    -0.01700
C1124       C  0.61906950  0.48969999  0.02505006    -0.09700
C1125       C  0.60232375  0.47852542  0.00498794    -0.18600
C1126       C  0.57321572  0.45567575  0.00630232     0.03800
C1127       C  0.56106028  0.44571582  0.02878012     0.18000
C1128       C  0.57790867  0.45801566  0.04888975    -0.20000
C1129       C  0.53272909  0.42231924  0.03101637    -0.21200
C1130       C  0.51687626  0.40725016  0.01143301    -0.19800
C1131       C  0.52868161  0.41574960  0.98911943     0.19400
C1132       C  0.55643963  0.44100576  0.98616511     0.01500
C1133       C  0.56682088  0.44946745  0.96318842    -0.14500
C1134       C  0.55176082  0.43185616  0.94425395    -0.12200
C1135       C  0.52581417  0.40569998  0.94756239     0.01100
C1136       C  0.51373509  0.39819926  0.96983655    -0.24400
H1137       H  0.64167135  0.50611744  0.02326433     0.09100
H1138       H  0.61323874  0.48724103  0.98868471     0.12600
H1139       H  0.56868494  0.44953598  0.06589529     0.11400
H1140       H  0.52326091  0.41472267  0.04808599     0.12600
H1141       H  0.49555815  0.38831649  0.01380068     0.11600
H1142       H  0.58699853  0.46897754  0.95933955     0.08700
H1143       H  0.56140736  0.43773836  0.92708280     0.11900
H1144       H  0.49373009  0.37770918  0.97235743     0.13800
C1145       C  0.60943616  0.41483736  0.12763226    -0.01700
C1146       C  0.58157310  0.40022363  0.13676336    -0.09700
C1147       C  0.56654728  0.37008715  0.13965922    -0.18600
C1148       C  0.57917789  0.35390669  0.13335916     0.03800
C1149       C  0.60823900  0.36947195  0.12561306     0.18000
C1150       C  0.62295963  0.39951699  0.12298661    -0.20000
C1151       C  0.62204571  0.35490524  0.11920330    -0.21200
C1152       C  0.60699932  0.32494378  0.11866485    -0.19800
C1153       C  0.57789269  0.30891654  0.12471769     0.19400
C1154       C  0.56374575  0.32293705  0.13310618     0.01500
C1155       C  0.53446008  0.30526929  0.13969110    -0.14500
C1156       C  0.51938482  0.27520815  0.13623792    -0.12200
C1157       C  0.53308809  0.26216936  0.12609924     0.01100
C1158       C  0.56250701  0.27896091  0.12124793    -0.24400
H1159       H  0.57084309  0.41185159  0.14040357     0.09100
H1160       H  0.54475994  0.35994395  0.14592662     0.12600
H1161       H  0.64469785  0.41097690  0.11609659     0.11400
H1162       H  0.64432001  0.36676885  0.11362083     0.12600
H1163       H  0.61794437  0.31424935  0.11268181     0.11600
H1164       H  0.52246642  0.31415666  0.14684655     0.08700
H1165       H  0.49665690  0.26239911  0.14029099     0.11900
H1166       H  0.57321675  0.26872048  0.11373637     0.13800
C1167       C  0.80549978  0.40466009  0.12940271    -0.01700
C1168       C  0.77778357  0.39115177  0.13876996    -0.09700
C1169       C  0.76374120  0.40625020  0.14133929    -0.18600
C1170       C  0.77682955  0.43535496  0.13397139     0.03800
C1171       C  0.80544021  0.44927230  0.12527213     0.18000
C1172       C  0.81963836  0.43399954  0.12344127    -0.20000
C1173       C  0.81920828  0.47790486  0.11742558    -0.21200
C1174       C  0.80477642  0.49272174  0.11714912    -0.19800
C1175       C  0.77625242  0.47928555  0.12476476     0.19400
C1176       C  0.76207276  0.45062736  0.13380717     0.01500
C1177       C  0.73323537  0.43799088  0.14120504    -0.14500
C1178       C  0.71848208  0.45224606  0.13797303    -0.12200
C1179       C  0.73207338  0.47977214  0.12788718     0.01100
C1180       C  0.76129582  0.49374702  0.12223164    -0.24400
H1181       H  0.76662443  0.36853362  0.14366310     0.09100
H1182       H  0.74232469  0.39417305  0.14841351     0.12600
H1183       H  0.84103457  0.44444886  0.11596555     0.11400
H1184       H  0.84102048  0.48863989  0.11081246     0.12600
H1185       H  0.81573928  0.51456351  0.11030700     0.11600
H1186       H  0.72108767  0.41671690  0.14875194     0.08700
H1187       H  0.69592003  0.44122195  0.14265564     0.11900
H1188       H  0.77180359  0.51499500  0.11425212     0.13800
C1189       C  0.65668811  0.16234846  0.68934247    -0.01700
C1190       C  0.63398599  0.16117060  0.70168134    -0.09700
C1191       C  0.63389371  0.16135309  0.72600712    -0.18600
C1192       C  0.65670349  0.16279519  0.73892373     0.03800
C1193       C  0.67982533  0.16425276  0.72632423     0.18000
C1194       C  0.67958988  0.16396851  0.70184990    -0.20000
C1195       C  0.70304576  0.16592680  0.73821141    -0.21200
C1196       C  0.70372738  0.16593785  0.76243181    -0.19800
C1197       C  0.68118891  0.16423971  0.77539503     0.19400
C1198       C  0.65738774  0.16275172  0.76382696     0.01500
C1199       C  0.63524308  0.16113885  0.77771495    -0.14500
C1200       C  0.63657358  0.16084030  0.80194540    -0.12200
C1201       C  0.65990915  0.16207679  0.81333493     0.01100
C1202       C  0.68223916  0.16387977  0.79989412    -0.24400
H1203       H  0.61607302  0.15999549  0.69250052     0.09100
H1204       H  0.61559864  0.16032028  0.73413659     0.12600
H1205       H  0.69740586  0.16506591  0.69252429     0.11400
H1206       H  0.72079348  0.16714393  0.72869697     0.12600
H1207       H  0.72197384  0.16715718  0.77108909     0.11600
H1208       H  0.61647823  0.15996939  0.77043475     0.08700
H1209       H  0.61898465  0.15944441  0.81181433     0.11900
H1210       H  0.70044987  0.16492479  0.80848375     0.13800
C1211       C  0.85201627  0.34764238  0.31706084    -0.01700
C1212       C  0.84992392  0.32389706  0.30538461    -0.09700
C1213       C  0.84945750  0.32249753  0.28108764    -0.18600
C1214       C  0.85114410  0.34499586  0.26744174     0.03800
C1215       C  0.85267469  0.36880128  0.27932285     0.18000
C1216       C  0.85307983  0.36990982  0.30384298    -0.20000
C1217       C  0.85400935  0.39148623  0.26665726    -0.21200
C1218       C  0.85408150  0.39119393  0.24242817    -0.19800
C1219       C  0.85296738  0.36828028  0.23020692     0.19400
C1220       C  0.85148371  0.34481668  0.24249084     0.01500
C1221       C  0.85065287  0.32237339  0.22922103    -0.14500
C1222       C  0.85122813  0.32322193  0.20486279    -0.12200
C1223       C  0.85262439  0.34635888  0.19281706     0.01100
C1224       C  0.85344386  0.36880160  0.20570951    -0.24400
H1225       H  0.84881548  0.30623402  0.31507793     0.09100
H1226       H  0.84785243  0.30352527  0.27354218     0.12600
H1227       H  0.85451967  0.38832666  0.31262589     0.11400
H1228       H  0.85509414  0.40965899  0.27555892     0.12600
H1229       H  0.85518889  0.40914054  0.23316950     0.11600
H1230       H  0.84967763  0.30389063  0.23711469     0.08700
H1231       H  0.85055747  0.30558677  0.19542225     0.11900
H1232       H  0.85451061  0.38686340  0.19666687     0.13800
C1233       C  0.81640709  0.28113893  0.45687743    -0.01700
C1234       C  0.82739768  0.29019800  0.47936708    -0.09700
C1235       C  0.81350652  0.27250576  0.49859491    -0.18600
C1236       C  0.78729963  0.24566684  0.49592381     0.03800
C1237       C  0.77674556  0.23626467  0.47294990     0.18000
C1238       C  0.79191910  0.25349792  0.45369839    -0.20000
C1239       C  0.74993928  0.21092403  0.46941579    -0.21200
C1240       C  0.73222955  0.19612762  0.48823636    -0.19800
C1241       C  0.74150497  0.20556238  0.51103673     0.19400
C1242       C  0.76993480  0.22920008  0.51523525     0.01500
C1243       C  0.77912419  0.23621847  0.53861992    -0.14500
C1244       C  0.75984348  0.22262531  0.55695393    -0.12200
C1245       C  0.73089192  0.20189069  0.55254489     0.01100
C1246       C  0.72210193  0.19253972  0.52962430    -0.24400
H1247       H  0.84619623  0.31154963  0.48217157     0.09100
H1248       H  0.82266846  0.28135198  0.51543565     0.12600
H1249       H  0.78299435  0.24661033  0.43634557     0.11400
H1250       H  0.74183643  0.20354466  0.45194258     0.12600
H1251       H  0.71084910  0.17767960  0.48491171     0.11600
H1252       H  0.80088656  0.25256810  0.54323083     0.08700
H1253       H  0.76722436  0.22978484  0.57460310     0.11900
H1254       H  0.69985589  0.17596467  0.52619243     0.13800
C1255       C  0.85028615  0.52621456  0.68989147    -0.01700
C1256       C  0.83175386  0.53222711  0.70209640    -0.09700
C1257       C  0.83075066  0.53155070  0.72648839    -0.18600
C1258       C  0.84827882  0.52464795  0.73966994     0.03800
C1259       C  0.86680959  0.51825809  0.72723256     0.18000
C1260       C  0.86772145  0.51919512  0.70270539    -0.20000
C1261       C  0.88436889  0.51093415  0.73933275    -0.21200
C1262       C  0.88417511  0.51005561  0.76356068    -0.19800
C1263       C  0.86648008  0.51655924  0.77639796     0.19400
C1264       C  0.84816856  0.52385531  0.76466702     0.01500
C1265       C  0.83067832  0.53012525  0.77851449    -0.14500
C1266       C  0.83139618  0.52921885  0.80284656    -0.12200
C1267       C  0.84961184  0.52221326  0.81438628     0.01100
C1268       C  0.86709326  0.51587426  0.80094265    -0.24400
H1269       H  0.81793888  0.53759756  0.69274976     0.09100
H1270       H  0.81598967  0.53649768  0.73449614     0.12600
H1271       H  0.88200869  0.51425328  0.69356651     0.11400
H1272       H  0.89844640  0.50589670  0.72997578     0.12600
H1273       H  0.89810318  0.50436450  0.77233377     0.11600
H1274       H  0.81624180  0.53588276  0.77108515     0.08700
H1275       H  0.81766066  0.53428182  0.81269077     0.11900
H1276       H  0.88117422  0.51027620  0.80958380     0.13800
C1277       C  0.89342031  0.42040565  0.45149747    -0.01700
C1278       C  0.89803678  0.44809170  0.44864646    -0.09700
C1279       C  0.90160046  0.46531192  0.46800016    -0.18600
C1280       C  0.90002785  0.45489175  0.49087819     0.03800
C1281       C  0.89858423  0.42809174  0.49346521     0.18000
C1282       C  0.89516774  0.41107433  0.47380209    -0.20000
C1283       C  0.89818791  0.41736436  0.51570784    -0.21200
C1284       C  0.89686847  0.43149079  0.53545807    -0.19800
C1285       C  0.89520976  0.45627045  0.53338554     0.19400
C1286       C  0.89754585  0.46882842  0.51112531     0.01500
C1287       C  0.89470647  0.49326694  0.50994557    -0.14500
C1288       C  0.88718946  0.50302293  0.52963356    -0.12200
C1289       C  0.88342273  0.48955736  0.55122563     0.01100
C1290       C  0.88899457  0.46721845  0.55323148    -0.24400
H1291       H  0.89648211  0.45547031  0.43148555     0.09100
H1292       H  0.90403953  0.48598923  0.46452239     0.12600
H1293       H  0.89126406  0.38944829  0.47599504     0.11400
H1294       H  0.89764637  0.39724415  0.51781496     0.12600
H1295       H  0.89540477  0.42198788  0.55238909     0.11600
H1296       H  0.89644354  0.50423272  0.49383527     0.08700
H1297       H  0.88330105  0.52055500  0.52780489     0.11900
H1298       H  0.88594362  0.45660350  0.56990934     0.13800
C1299       C  0.81637978  0.41924373  0.62386172    -0.01700
C1300       C  0.80472683  0.40609539  0.64532541    -0.09700
C1301       C  0.79203370  0.37608533  0.64794864    -0.18600
C1302       C  0.79096416  0.35864550  0.62907475     0.03800
C1303       C  0.80471854  0.37282655  0.60793770     0.18000
C1304       C  0.81704089  0.40261234  0.60557688    -0.20000
C1305       C  0.80526908  0.35717673  0.58882770    -0.21200
C1306       C  0.79124880  0.32735501  0.58976648    -0.19800
C1307       C  0.77593925  0.31251912  0.60968175     0.19400
C1308       C  0.77585990  0.32771041  0.62986466     0.01500
C1309       C  0.75926116  0.31109428  0.64923319    -0.14500
C1310       C  0.74152589  0.28082418  0.64766820    -0.12200
C1311       C  0.74051685  0.26662575  0.62700568     0.01100
C1312       C  0.75900388  0.28243074  0.60874458    -0.24400
H1313       H  0.80431462  0.41879113  0.65972487     0.09100
H1314       H  0.78274710  0.36704636  0.66469578     0.12600
H1315       H  0.82664587  0.41291711  0.58907258     0.11400
H1316       H  0.81601775  0.36803123  0.57280877     0.12600
H1317       H  0.79134970  0.31573375  0.57442036     0.11600
H1318       H  0.75833576  0.32099566  0.66523614     0.08700
H1319       H  0.72724251  0.26881812  0.66195080     0.11900
H1320       H  0.75834716  0.27128664  0.59280870     0.13800
C1321       C  0.49148948  0.16064086  0.31012944    -0.01700
C1322       C  0.51389359  0.16047502  0.29838761    -0.09700
C1323       C  0.51414120  0.15907253  0.27420006    -0.18600
C1324       C  0.49192928  0.15790025  0.26070077     0.03800
C1325       C  0.46905757  0.15783061  0.27262625     0.18000
C1326       C  0.46899105  0.15910511  0.29710392    -0.20000
C1327       C  0.44654438  0.15670611  0.26002139    -0.21200
C1328       C  0.44641138  0.15599462  0.23579240    -0.19800
C1329       C  0.46874674  0.15630929  0.22355620     0.19400
C1330       C  0.49174262  0.15706502  0.23584956     0.01500
C1331       C  0.51366897  0.15717444  0.22269299    -0.14500
C1332       C  0.51301835  0.15690662  0.19846442    -0.12200
C1333       C  0.49051914  0.15647168  0.18638116     0.01100
C1334       C  0.46834519  0.15603338  0.19907185    -0.24400
H1335       H  0.53147854  0.16145958  0.30794781     0.09100
H1336       H  0.53227016  0.15910584  0.26662494     0.12600
H1337       H  0.45146149  0.15910779  0.30600547     0.11400
H1338       H  0.42899476  0.15657323  0.26897207     0.12600
H1339       H  0.42875901  0.15532701  0.22654422     0.11600
H1340       H  0.53183696  0.15756076  0.23057018     0.08700
H1341       H  0.53039073  0.15716651  0.18914699     0.11900
H1342       H  0.45073780  0.15558260  0.18989254     0.13800
C1343       C  0.53547592  0.13888019  0.44371372    -0.01700
C1344       C  0.51747216  0.12078720  0.46140233    -0.09700
C1345       C  0.52926622  0.11608505  0.48137782    -0.18600
C1346       C  0.55948833  0.12979949  0.48411655     0.03800
C1347       C  0.57719646  0.14616706  0.46503687     0.18000
C1348       C  0.56505336  0.15031631  0.44513122    -0.20000
C1349       C  0.60712592  0.16008556  0.46648757    -0.21200
C1350       C  0.62015692  0.16005516  0.48718062    -0.19800
C1351       C  0.60352198  0.14601448  0.50682919     0.19400
C1352       C  0.57295935  0.12966990  0.50547507     0.01500
C1353       C  0.55744484  0.11567008  0.52601449    -0.14500
C1354       C  0.57168569  0.12003010  0.54736754    -0.12200
C1355       C  0.60159238  0.13810456  0.54864686     0.01100
C1356       C  0.61738298  0.14993156  0.52821804    -0.24400
H1357       H  0.49449302  0.11181662  0.46045801     0.09100
H1358       H  0.51436978  0.10282176  0.49480672     0.12600
H1359       H  0.57889617  0.16423949  0.43125395     0.11400
H1360       H  0.62061593  0.17223531  0.45184617     0.12600
H1361       H  0.64345191  0.17217168  0.48810760     0.11600
H1362       H  0.53430159  0.10237648  0.52631486     0.08700
H1363       H  0.55919862  0.11084926  0.56309719     0.11900
H1364       H  0.64061301  0.16391772  0.52928855     0.13800
C1365       C  0.59943895  0.21846555  0.37668256    -0.01700
C1366       C  0.61163797  0.20238507  0.36985606    -0.09700
C1367       C  0.64149650  0.21536364  0.36824811    -0.18600
C1368       C  0.66022080  0.24494930  0.37378114     0.03800
C1369       C  0.64761094  0.26135211  0.37975429     0.18000
C1370       C  0.61762479  0.24817232  0.38081988    -0.20000
C1371       C  0.66495668  0.29061867  0.38565450    -0.21200
C1372       C  0.69458003  0.30367866  0.38695397    -0.19800
C1373       C  0.70759036  0.28789872  0.38208717     0.19400
C1374       C  0.69086476  0.25859362  0.37464609     0.01500
C1375       C  0.70559496  0.24416843  0.36926153    -0.14500
C1376       C  0.73543510  0.25785644  0.37249201    -0.12200
C1377       C  0.75116891  0.28604469  0.38130623     0.01100
C1378       C  0.73723047  0.30107063  0.38550114    -0.24400
H1379       H  0.59808164  0.17940607  0.36638654     0.09100
H1380       H  0.64928355  0.20149301  0.36340504     0.12600
H1381       H  0.60850086  0.26089141  0.38603831     0.11400
H1382       H  0.65548786  0.30326115  0.39004267     0.12600
H1383       H  0.70738164  0.32616400  0.39232517     0.11600
H1384       H  0.69457175  0.22216858  0.36299270     0.08700
H1385       H  0.74596936  0.24597572  0.36914465     0.11900
H1386       H  0.74951374  0.32301156  0.39221689     0.13800
C1387       C  0.48757503  0.34386204  0.68817287    -0.01700
C1388       C  0.50870491  0.36798553  0.70056126    -0.09700
C1389       C  0.50975434  0.36777070  0.72484270    -0.18600
C1390       C  0.48961916  0.34319043  0.73773433     0.03800
C1391       C  0.46804642  0.31879999  0.72515544     0.18000
C1392       C  0.46725063  0.31931239  0.70064958    -0.20000
C1393       C  0.44727667  0.29412039  0.73712300    -0.21200
C1394       C  0.44706910  0.29334933  0.76136266    -0.19800
C1395       C  0.46788204  0.31707771  0.77426677     0.19400
C1396       C  0.48983143  0.34211329  0.76262653     0.01500
C1397       C  0.51100441  0.36500485  0.77643344    -0.14500
C1398       C  0.50979354  0.36355826  0.80069308    -0.12200
C1399       C  0.48750424  0.33936700  0.81215773     0.01100
C1400       C  0.46678815  0.31599669  0.79877749    -0.24400
H1401       H  0.52456088  0.38732229  0.69144160     0.09100
H1402       H  0.52645716  0.38733887  0.73297242     0.12600
H1403       H  0.45078636  0.30048923  0.69128467     0.11400
H1404       H  0.43082483  0.27539588  0.72766944     0.12600
H1405       H  0.43043798  0.27407019  0.77008268     0.11600
H1406       H  0.52885150  0.38435948  0.76905833     0.08700
H1407       H  0.52636210  0.38175809  0.81052549     0.11900
H1408       H  0.44972322  0.29692868  0.80742819     0.13800
C1409       C  0.45640727  0.27509068  0.54839973    -0.01700
C1410       C  0.44910097  0.24638330  0.55134235    -0.09700
C1411       C  0.44605084  0.22915522  0.53204716    -0.18600
C1412       C  0.45014522  0.24020959  0.50911187     0.03800
C1413       C  0.45451853  0.26826774  0.50623011     0.18000
C1414       C  0.45788494  0.28544690  0.52576523    -0.20000
C1415       C  0.45704810  0.27964658  0.48388572    -0.21200
C1416       C  0.45690103  0.26443777  0.46432498    -0.19800
C1417       C  0.45513329  0.23788614  0.46666893     0.19400
C1418       C  0.45146754  0.22518073  0.48906314     0.01500
C1419       C  0.45149225  0.19914191  0.49052504    -0.14500
C1420       C  0.45696951  0.18747005  0.47085743    -0.12200
C1421       C  0.46120460  0.20052530  0.44901264     0.01100
C1422       C  0.45899356  0.22498736  0.44688612    -0.24400
H1423       H  0.44765517  0.23781736  0.56866542     0.09100
H1424       H  0.44127763  0.20757929  0.53562686     0.12600
H1425       H  0.46312080  0.30751201  0.52335295     0.11400
H1426       H  0.45992085  0.30082007  0.48154792     0.12600
H1427       H  0.45965208  0.27421383  0.44731544     0.11600
H1428       H  0.44907728  0.18828128  0.50683539     0.08700
H1429       H  0.45876490  0.16863117  0.47283679     0.11900
H1430       H  0.46280896  0.23547300  0.43006685     0.13800
C1431       C  0.59378450  0.40115785  0.62269057    -0.01700
C1432       C  0.60866130  0.43146889  0.62329427    -0.09700
C1433       C  0.63863792  0.44782594  0.62568444    -0.18600
C1434       C  0.65471315  0.43424370  0.62750695     0.03800
C1435       C  0.63920905  0.40348091  0.62839069     0.18000
C1436       C  0.60918985  0.38739781  0.62600926    -0.20000
C1437       C  0.65379174  0.38878948  0.63071177    -0.21200
C1438       C  0.68361836  0.40388639  0.63091936    -0.19800
C1439       C  0.69958484  0.43402624  0.62868177     0.19400
C1440       C  0.68551864  0.44982477  0.62752669     0.01500
C1441       C  0.70295742  0.48032537  0.62539016    -0.14500
C1442       C  0.73289232  0.49422428  0.62304899    -0.12200
C1443       C  0.74634486  0.47823394  0.62288762     0.01100
C1444       C  0.72956151  0.44826680  0.62655237    -0.24400
H1445       H  0.59723489  0.44265166  0.62097909     0.09100
H1446       H  0.64866744  0.47101717  0.62544582     0.12600
H1447       H  0.59788941  0.36396663  0.62589995     0.11400
H1448       H  0.64204969  0.36536704  0.63170933     0.12600
H1449       H  0.69427734  0.39179481  0.63206749     0.11600
H1450       H  0.69402559  0.49391461  0.62471048     0.08700
H1451       H  0.74538382  0.51741444  0.62036733     0.11900
H1452       H  0.73977688  0.43569399  0.62682177     0.13800
C1453       C  0.52047156  0.27686054  0.62851731    -0.01700
C1454       C  0.54882725  0.29336475  0.63647748    -0.09700
C1455       C  0.56564672  0.28107862  0.63870415    -0.18600
C1456       C  0.55448581  0.25180756  0.63263612     0.03800
C1457       C  0.52476877  0.23456021  0.62674530     0.18000
C1458       C  0.50812283  0.24726631  0.62455141    -0.20000
C1459       C  0.51227691  0.20511285  0.62181465    -0.21200
C1460       C  0.52895598  0.19268521  0.62141797    -0.19800
C1461       C  0.55867134  0.20960596  0.62522549     0.19400
C1462       C  0.57191771  0.23937176  0.63109506     0.01500
C1463       C  0.60222998  0.25572924  0.63366509    -0.14500
C1464       C  0.61868888  0.24326266  0.62960569    -0.12200
C1465       C  0.60547869  0.21401867  0.62347839     0.01100
C1466       C  0.57537727  0.19717255  0.62203199    -0.24400
H1467       H  0.55849099  0.31629242  0.63976292     0.09100
H1468       H  0.58750653  0.29522180  0.64447881     0.12600
H1469       H  0.48612752  0.23456820  0.61830758     0.11400
H1470       H  0.48958130  0.19174926  0.61767568     0.12600
H1471       H  0.51873681  0.16993493  0.61706161     0.11600
H1472       H  0.61394801  0.27847338  0.63784713     0.08700
H1473       H  0.64189205  0.25667432  0.63097261     0.11900
H1474       H  0.56491496  0.17453954  0.61716753     0.13800
C1475       C  0.67480879  0.53075310  0.31267625    -0.01700
C1476       C  0.65078603  0.52774935  0.30102730    -0.09700
C1477       C  0.64916588  0.52675168  0.27664079    -0.18600
C1478       C  0.67165134  0.52868388  0.26291308     0.03800
C1479       C  0.69617693  0.53223545  0.27478792     0.18000
C1480       C  0.69752347  0.53322963  0.29929886    -0.20000
C1481       C  0.71921976  0.53457161  0.26215026    -0.21200
C1482       C  0.71852469  0.53347826  0.23794129    -0.19800
C1483       C  0.69469744  0.52985653  0.22566517     0.19400
C1484       C  0.67079978  0.52724055  0.23791240     0.01500
C1485       C  0.64714984  0.52316920  0.22454166    -0.14500
C1486       C  0.64743658  0.52211839  0.20013942    -0.12200
C1487       C  0.67122602  0.52511093  0.18811714     0.01100
C1488       C  0.69472297  0.52884169  0.20114661    -0.24400
H1489       H  0.63290801  0.52583014  0.31081240     0.09100
H1490       H  0.62998160  0.52435029  0.26904794     0.12600
H1491       H  0.71626989  0.53557926  0.30798353     0.11400
H1492       H  0.73798095  0.53728423  0.27106794     0.12600
H1493       H  0.73678755  0.53542113  0.22873801     0.11600
H1494       H  0.62807075  0.52066568  0.23243540     0.08700
H1495       H  0.62888383  0.51901785  0.19064008     0.11900
H1496       H  0.71321411  0.53096569  0.19218659     0.13800
C1497       C  0.74264335  0.54827461  0.44822371    -0.01700
C1498       C  0.73635091  0.55775879  0.46875618    -0.09700
C1499       C  0.75309330  0.56312488  0.48886332    -0.18600
C1500       C  0.77663623  0.55892334  0.48899422     0.03800
C1501       C  0.78351539  0.55046716  0.46769320     0.18000
C1502       C  0.76657562  0.54526186  0.44769384    -0.20000
C1503       C  0.80636714  0.54577662  0.46672472    -0.21200
C1504       C  0.82143785  0.54743706  0.48677309    -0.19800
C1505       C  0.81421583  0.55407741  0.50828269     0.19400
C1506       C  0.79252527  0.56108355  0.50964078     0.01500
C1507       C  0.78671175  0.56830637  0.53185219    -0.14500
C1508       C  0.79975118  0.56576020  0.55201631    -0.12200
C1509       C  0.81923832  0.55645816  0.55062459     0.01100
C1510       C  0.82723976  0.55182126  0.52865148    -0.24400
H1511       H  0.71758799  0.55965751  0.46958060     0.09100
H1512       H  0.74645460  0.56948520  0.50425131     0.12600
H1513       H  0.77122405  0.53753080  0.43185387     0.11400
H1514       H  0.81191195  0.53966047  0.45048785     0.12600
H1515       H  0.83821113  0.54247681  0.48557698     0.11600
H1516       H  0.77120067  0.57464416  0.53429875     0.08700
H1517       H  0.79297016  0.56899880  0.56888924     0.11900
H1518       H  0.84202084  0.54419252  0.52756691     0.13800
C1519       C  0.52854350  0.41348561  0.55345840    -0.01700
C1520       C  0.51341021  0.40638980  0.53243157    -0.09700
C1521       C  0.52691189  0.42186114  0.51210607    -0.18600
C1522       C  0.55632353  0.44430808  0.51228893     0.03800
C1523       C  0.57064775  0.45269498  0.53419393     0.18000
C1524       C  0.55655139  0.43751902  0.55447375    -0.20000
C1525       C  0.59968046  0.47460852  0.53554558    -0.21200
C1526       C  0.61552634  0.48696071  0.51543371    -0.19800
C1527       C  0.60265166  0.47783402  0.49351664     0.19400
C1528       C  0.57263378  0.45725095  0.49154875     0.01500
C1529       C  0.56076259  0.44939845  0.46887218    -0.14500
C1530       C  0.57832074  0.46004890  0.44912123    -0.12200
C1531       C  0.60813786  0.47875117  0.45134501     0.01100
C1532       C  0.61998514  0.48822752  0.47356110    -0.24400
H1533       H  0.49182663  0.38754365  0.53136716     0.09100
H1534       H  0.51435207  0.41458733  0.49632578     0.12600
H1535       H  0.56834278  0.44264166  0.57077428     0.11400
H1536       H  0.61056866  0.48127563  0.55223423     0.12600
H1537       H  0.63828541  0.50298948  0.51701924     0.11600
H1538       H  0.53814540  0.43446893  0.46585271     0.08700
H1539       H  0.56866742  0.45258341  0.43207702     0.11900
H1540       H  0.64300249  0.50307968  0.47536961     0.13800
C1541       C  0.51988854  0.26659115  0.37144981    -0.01700
C1542       C  0.53930022  0.27999923  0.35311002    -0.09700
C1543       C  0.55302338  0.30995427  0.34979966    -0.18600
C1544       C  0.54763650  0.32723152  0.36494918     0.03800
C1545       C  0.52629840  0.31286774  0.38247654     0.18000
C1546       C  0.51281440  0.28292034  0.38555826    -0.20000
C1547       C  0.51967823  0.32860679  0.39777497    -0.21200
C1548       C  0.53524240  0.35859162  0.39722228    -0.19800
C1549       C  0.55782682  0.37348474  0.38141321     0.19400
C1550       C  0.56375480  0.35819891  0.36441085     0.01500
C1551       C  0.58676622  0.37465950  0.34872719    -0.14500
C1552       C  0.60471662  0.40470109  0.35136506    -0.12200
C1553       C  0.59987737  0.41895612  0.36939038     0.01100
C1554       C  0.57576797  0.40352583  0.38362766    -0.24400
H1555       H  0.54510978  0.26756098  0.34217691     0.09100
H1556       H  0.56849970  0.31908874  0.33586355     0.12600
H1557       H  0.49778103  0.27240684  0.39979549     0.11400
H1558       H  0.50313054  0.31768272  0.41090774     0.12600
H1559       H  0.53042543  0.37022238  0.40995989     0.11600
H1560       H  0.59222638  0.36479976  0.33501305     0.08700
H1561       H  0.62339847  0.41650750  0.34024879     0.11900
H1562       H  0.57213850  0.41477972  0.39757150     0.13800
C1563       C  0.73559915  0.48147925  0.37280864    -0.01700
C1564       C  0.76527604  0.49823217  0.37695264    -0.09700
C1565       C  0.78191034  0.48551119  0.37690284    -0.18600
C1566       C  0.76917201  0.45545801  0.37287241     0.03800
C1567       C  0.73950206  0.43919752  0.36684166     0.18000
C1568       C  0.72321840  0.45231917  0.36665559    -0.20000
C1569       C  0.72577062  0.40953075  0.36226657    -0.21200
C1570       C  0.74043713  0.39519342  0.36480313    -0.19800
C1571       C  0.76917582  0.41017818  0.37198424     0.19400
C1572       C  0.78428455  0.44064949  0.37557605     0.01500
C1573       C  0.81343334  0.45459250  0.38263294    -0.14500
C1574       C  0.82655357  0.43873899  0.38678270    -0.12200
C1575       C  0.81102955  0.40860196  0.38417765     0.01100
C1576       C  0.78258001  0.39459861  0.37631492    -0.24400
H1577       H  0.77538436  0.52086220  0.38163011     0.09100
H1578       H  0.80442629  0.49952135  0.38097007     0.12600
H1579       H  0.70032519  0.43927374  0.36306530     0.11400
H1580       H  0.70323772  0.39712741  0.35741719     0.12600
H1581       H  0.72895577  0.37203326  0.36178009     0.11600
H1582       H  0.82646661  0.47761967  0.38557455     0.08700
H1583       H  0.84862608  0.44997568  0.39283531     0.11900
H1584       H  0.77062673  0.37131292  0.37390222     0.13800
C1585       C  0.52296200  0.67408068  0.19401820    -0.01700
C1586       C  0.53882312  0.70032669  0.20603633    -0.09700
C1587       C  0.53980947  0.70102066  0.23039076    -0.18600
C1588       C  0.52527327  0.67522780  0.24366067     0.03800
C1589       C  0.50948147  0.64858374  0.23137145     0.18000
C1590       C  0.50812463  0.64827592  0.20685460    -0.20000
C1591       C  0.49535308  0.62238419  0.24361281    -0.21200
C1592       C  0.49664265  0.62201698  0.26783490    -0.19800
C1593       C  0.51169881  0.64786240  0.28051919     0.19400
C1594       C  0.52600139  0.67487116  0.26861274     0.01500
C1595       C  0.54021729  0.70035415  0.28223386    -0.14500
C1596       C  0.54007709  0.69908982  0.30652007    -0.12200
C1597       C  0.52615245  0.67250383  0.31825031     0.01100
C1598       C  0.51222774  0.64689287  0.30507887    -0.24400
H1599       H  0.55034870  0.72053314  0.19653956     0.09100
H1600       H  0.55244602  0.72209619  0.23826781     0.12600
H1601       H  0.49596243  0.62779721  0.19770698     0.11400
H1602       H  0.48335882  0.60197535  0.23436584     0.12600
H1603       H  0.48558172  0.60134589  0.27672539     0.11600
H1604       H  0.55131724  0.72167318  0.27469189     0.08700
H1605       H  0.55102628  0.71922060  0.31621306     0.11900
H1606       H  0.50111345  0.62620252  0.31395615     0.13800
C1607       C  0.59200691  0.66467215  0.39794411    -0.01700
C1608       C  0.59502253  0.65347497  0.41893894    -0.09700
C1609       C  0.61410764  0.64383337  0.42083707    -0.18600
C1610       C  0.63006672  0.64407662  0.40133762     0.03800
C1611       C  0.62878060  0.65779491  0.38065044     0.18000
C1612       C  0.61014233  0.66840082  0.37925991    -0.20000
C1613       C  0.64445397  0.65888449  0.36095859    -0.21200
C1614       C  0.65958078  0.64472279  0.36074199    -0.19800
C1615       C  0.65926956  0.62897180  0.38016084     0.19400
C1616       C  0.64536024  0.62927338  0.40104167     0.01500
C1617       C  0.64529672  0.61269494  0.42006113    -0.14500
C1618       C  0.65573101  0.59425369  0.41758095    -0.12200
C1619       C  0.66754864  0.59250129  0.39647681     0.01100
C1620       C  0.67077021  0.61108983  0.37823795    -0.24400
H1621       H  0.58145704  0.65087339  0.43367622     0.09100
H1622       H  0.61472281  0.63496622  0.43744548     0.12600
H1623       H  0.60781214  0.67705755  0.36296170     0.11400
H1624       H  0.64393405  0.66963364  0.34523700     0.12600
H1625       H  0.67038670  0.64488004  0.34485586     0.11600
H1626       H  0.63579448  0.61212232  0.43664745     0.08700
H1627       H  0.65316370  0.58007887  0.43189187     0.11900
H1628       H  0.67961144  0.60951505  0.36177758     0.13800
C1629       C  0.35559330  0.85997287  0.31266653    -0.01700
C1630       C  0.37672057  0.85783268  0.30057714    -0.09700
C1631       C  0.37767168  0.85830657  0.27621895    -0.18600
C1632       C  0.35737634  0.86096498  0.26287313     0.03800
C1633       C  0.33610393  0.86338975  0.27512839     0.18000
C1634       C  0.33538951  0.86287091  0.29971163    -0.20000
C1635       C  0.31556434  0.86617614  0.26276087    -0.21200
C1636       C  0.31542385  0.86623118  0.23848164    -0.19800
C1637       C  0.33585581  0.86356152  0.22584450     0.19400
C1638       C  0.35727880  0.86110885  0.23787077     0.01500
C1639       C  0.37756622  0.85875189  0.22431455    -0.14500
C1640       C  0.37648815  0.85857634  0.19999843    -0.12200
C1641       C  0.35520052  0.86066976  0.18809413     0.01100
C1642       C  0.33493712  0.86323617  0.20123441    -0.24400
H1643       H  0.39265886  0.85563712  0.30999782     0.09100
H1644       H  0.39454121  0.85642774  0.26838347     0.12600
H1645       H  0.31898921  0.86470186  0.30876151     0.11400
H1646       H  0.29933900  0.86815770  0.27194507     0.12600
H1647       H  0.29909962  0.86825447  0.22951492     0.11600
H1648       H  0.39457303  0.85694539  0.23194792     0.08700
H1649       H  0.39248168  0.85659116  0.19045334     0.11900
H1650       H  0.31844571  0.86504822  0.19232593     0.13800
C1651       C  0.35699520  0.93390495  0.38700012    -0.01700
C1652       C  0.35900586  0.94756778  0.40820216    -0.09700
C1653       C  0.36795499  0.97695621  0.40876831    -0.18600
C1654       C  0.37512990  0.99338876  0.38797171     0.03800
C1655       C  0.37094238  0.97855528  0.36647832     0.18000
C1656       C  0.36215501  0.94923036  0.36623294    -0.20000
C1657       C  0.37699577  0.99335993  0.34532237    -0.21200
C1658       C  0.38917382  0.02309517  0.34499475    -0.19800
C1659       C  0.39574651  0.03871383  0.36581977     0.19400
C1660       C  0.38789192  0.02414323  0.38764062     0.01500
C1661       C  0.39500693  0.04129055  0.40808293    -0.14500
C1662       C  0.41172353  0.07158421  0.40688294    -0.12200
C1663       C  0.42133928  0.08542073  0.38536208     0.01100
C1664       C  0.41210417  0.06898762  0.36492441    -0.24400
H1665       H  0.35512554  0.93590210  0.42442536     0.09100
H1666       H  0.36997321  0.98642636  0.42571208     0.12600
H1667       H  0.36046991  0.93849557  0.34981748     0.11400
H1668       H  0.37334724  0.98202412  0.32891348     0.12600
H1669       H  0.39474765  0.03411641  0.32833836     0.11600
H1670       H  0.38931247  0.03192214  0.42524587     0.08700
H1671       H  0.41890677  0.08407342  0.42286318     0.11900
H1672       H  0.41966955  0.07982952  0.34826156     0.13800
C1673       C  0.40878376  0.80965428  0.38167982    -0.01700
C1674       C  0.43887969  0.82560598  0.38291360    -0.09700
C1675       C  0.45445470  0.81189800  0.38060690    -0.18600
C1676       C  0.44025495  0.78164067  0.37696360     0.03800
C1677       C  0.40978015  0.76590672  0.37465887     0.18000
C1678       C  0.39449199  0.77994397  0.37700329    -0.20000
C1679       C  0.39452285  0.73601531  0.37084236    -0.21200
C1680       C  0.40869900  0.72103274  0.37041554    -0.19800
C1681       C  0.43846313  0.73560118  0.37378496     0.19400
C1682       C  0.45489514  0.76619071  0.37647068     0.01500
C1683       C  0.48501806  0.77965417  0.37950699    -0.14500
C1684       C  0.49782532  0.76316908  0.38155796    -0.12200
C1685       C  0.48106774  0.73292608  0.38046900     0.01100
C1686       C  0.45163411  0.71945514  0.37559706    -0.24400
H1687       H  0.45039587  0.84861686  0.38652658     0.09100
H1688       H  0.47748199  0.82543185  0.38231412     0.12600
H1689       H  0.37121022  0.76748090  0.37578467     0.11400
H1690       H  0.37133566  0.72400033  0.36882929     0.12600
H1691       H  0.39615781  0.69773839  0.36813760     0.11600
H1692       H  0.49908791  0.80276225  0.38115836     0.08700
H1693       H  0.52065505  0.77405780  0.38518691     0.11900
H1694       H  0.43856589  0.69605097  0.37432203     0.13800
C1695       C  0.16108366  0.49513499  0.31216035    -0.01700
C1696       C  0.17545060  0.48408327  0.30003408    -0.09700
C1697       C  0.17496664  0.48310584  0.27571616    -0.18600
C1698       C  0.15946209  0.49267340  0.26270107     0.03800
C1699       C  0.14424510  0.50312746  0.27519236     0.18000
C1700       C  0.14559153  0.50472058  0.29964866    -0.20000
C1701       C  0.12761163  0.51172412  0.26321700    -0.21200
C1702       C  0.12589553  0.51036937  0.23901059    -0.19800
C1703       C  0.14118546  0.50087794  0.22612687     0.19400
C1704       C  0.15835084  0.49207857  0.23780300     0.01500
C1705       C  0.17395817  0.48340359  0.22402821    -0.14500
C1706       C  0.17263818  0.48349970  0.19979504    -0.12200
C1707       C  0.15563549  0.49202378  0.18826198     0.01100
C1708       C  0.13973573  0.50049234  0.20159712    -0.24400
H1709       H  0.18740740  0.47643849  0.30942445     0.09100
H1710       H  0.18663525  0.47437635  0.26768599     0.12600
H1711       H  0.13397908  0.51280877  0.30902887     0.11400
H1712       H  0.11574573  0.51946366  0.27265279     0.12600
H1713       H  0.11277167  0.51712007  0.23029025     0.11600
H1714       H  0.18778555  0.47683273  0.23139344     0.08700
H1715       H  0.18521583  0.47689277  0.19001877     0.11900
H1716       H  0.12669032  0.50736546  0.19289735     0.13800
C1717       C  0.08150295  0.42177302  0.38345444    -0.01700
C1718       C  0.06797528  0.40853143  0.40443694    -0.09700
C1719       C  0.03788216  0.39061312  0.40558089    -0.18600
C1720       C  0.02051111  0.38563247  0.38564702     0.03800
C1721       C  0.03477280  0.39713822  0.36405345     0.18000
C1722       C  0.06485474  0.41490737  0.36319157    -0.20000
C1723       C  0.01892502  0.39250255  0.34363411    -0.21200
C1724       C  0.98917322  0.37861564  0.34440702    -0.19800
C1725       C  0.97456966  0.36911607  0.36562599     0.19400
C1726       C  0.98973938  0.37138066  0.38646861     0.01500
C1727       C  0.97353667  0.36097153  0.40732648    -0.14500
C1728       C  0.94406167  0.35110094  0.40769855    -0.12200
C1729       C  0.93001258  0.35121802  0.38735359     0.01100
C1730       C  0.94511314  0.35909526  0.36628372    -0.24400
H1731       H  0.08048447  0.41366822  0.42030397     0.09100
H1732       H  0.02875627  0.38205176  0.42246414     0.12600
H1733       H  0.07531677  0.42505743  0.34687675     0.11400
H1734       H  0.02969986  0.40080252  0.32707913     0.12600
H1735       H  0.97761895  0.37647772  0.32842996     0.11600
H1736       H  0.98331279  0.36141504  0.42375991     0.08700
H1737       H  0.93269775  0.34514366  0.42416580     0.11900
H1738       H  0.93416570  0.35904047  0.35048200     0.13800
C1739       C  0.20960243  0.60148691  0.37821308    -0.01700
C1740       C  0.23820787  0.61683374  0.37063665    -0.09700
C1741       C  0.25256571  0.64665621  0.36692460    -0.18600
C1742       C  0.23889797  0.66225852  0.37141464     0.03800
C1743       C  0.20966979  0.64639470  0.37872916     0.18000
C1744       C  0.19517345  0.61624391  0.38148003    -0.20000
C1745       C  0.19548105  0.66084179  0.38439921    -0.21200
C1746       C  0.21012283  0.69088446  0.38418350    -0.19800
C1747       C  0.23908566  0.70716968  0.37767757     0.19400
C1748       C  0.25360253  0.69310559  0.37026208     0.01500
C1749       C  0.28258825  0.71064400  0.36304107    -0.14500
C1750       C  0.29716465  0.74071613  0.36511398    -0.12200
C1751       C  0.28323060  0.75412400  0.37400382     0.01100
C1752       C  0.25405088  0.73745685  0.37963158    -0.24400
H1753       H  0.24968521  0.60575756  0.36789064     0.09100
H1754       H  0.27468059  0.65699954  0.36147029     0.12600
H1755       H  0.17309215  0.60447540  0.38756727     0.11400
H1756       H  0.17320062  0.64886219  0.38994131     0.12600
H1757       H  0.19887432  0.70147168  0.38961498     0.11600
H1758       H  0.29481467  0.70177142  0.35637901     0.08700
H1759       H  0.31984751  0.75349347  0.36084588     0.11900
H1760       H  0.24345073  0.74799078  0.38677956     0.13800
C1761       C  0.26409669  0.53263445  0.37813150    -0.01700
C1762       C  0.27701360  0.51795928  0.36956797    -0.09700
C1763       C  0.30712190  0.53242921  0.36719439    -0.18600
C1764       C  0.32502883  0.56208588  0.37328902     0.03800
C1765       C  0.31128947  0.57698805  0.38049852     0.18000
C1766       C  0.28135227  0.56225281  0.38285227    -0.20000
C1767       C  0.32748152  0.60634902  0.38632658    -0.21200
C1768       C  0.35723815  0.62103154  0.38658783    -0.19800
C1769       C  0.37153064  0.60670094  0.38105312     0.19400
C1770       C  0.35590935  0.57732195  0.37355965     0.01500
C1771       C  0.37197705  0.56442461  0.36775407    -0.14500
C1772       C  0.40201175  0.57956539  0.37082625    -0.12200
C1773       C  0.41664925  0.60777235  0.37980004     0.01100
C1774       C  0.40137371  0.62139839  0.38409492    -0.24400
H1775       H  0.26398596  0.49502858  0.36577042     0.09100
H1776       H  0.31586670  0.51976041  0.36121300     0.12600
H1777       H  0.27136283  0.57376666  0.38920289     0.11400
H1778       H  0.31702735  0.61784132  0.39146718     0.12600
H1779       H  0.36914357  0.64354745  0.39193175     0.11600
H1780       H  0.36178718  0.54244588  0.36152952     0.08700
H1781       H  0.41355475  0.56872230  0.36732836     0.11900
H1782       H  0.41276072  0.64337761  0.39078713     0.13800
C1783       C  0.51511402  0.84981676  0.68982979    -0.01700
C1784       C  0.53704417  0.84856397  0.70138309    -0.09700
C1785       C  0.53754821  0.84729014  0.72566655    -0.18600
C1786       C  0.51609712  0.84746349  0.73935112     0.03800
C1787       C  0.49367162  0.84834681  0.72753513     0.18000
C1788       C  0.49327300  0.84930601  0.70307242    -0.20000
C1789       C  0.47197763  0.84872727  0.74019736    -0.21200
C1790       C  0.47231192  0.84879171  0.76440751    -0.19800
C1791       C  0.49427655  0.84833978  0.77658394     0.19400
C1792       C  0.51633090  0.84732442  0.76427987     0.01500
C1793       C  0.53783842  0.84664142  0.77750501    -0.14500
C1794       C  0.53786775  0.84777642  0.80182373    -0.12200
C1795       C  0.51645742  0.84943739  0.81384888     0.01100
C1796       C  0.49448846  0.84929949  0.80105295    -0.24400
H1797       H  0.55407011  0.84868152  0.69160568     0.09100
H1798       H  0.55521099  0.84652812  0.73316957     0.12600
H1799       H  0.47614135  0.85019700  0.69435422     0.11400
H1800       H  0.45479056  0.84933318  0.73130807     0.12600
H1801       H  0.45537733  0.84945303  0.77368157     0.11600
H1802       H  0.55508617  0.84547104  0.76961068     0.08700
H1803       H  0.55493256  0.84754900  0.81124684     0.11900
H1804       H  0.47768712  0.85042398  0.81012868     0.13800
C1805       C  0.58633911  0.93452332  0.61859624    -0.01700
C1806       C  0.60077548  0.94884141  0.59818423    -0.09700
C1807       C  0.61757874  0.97921221  0.59761319    -0.18600
C1808       C  0.61987917  0.99588945  0.61748017     0.03800
C1809       C  0.60666626  0.98079031  0.63845638     0.18000
C1810       C  0.59065701  0.95058218  0.63886678    -0.20000
C1811       C  0.60763968  0.99574882  0.65860502    -0.21200
C1812       C  0.61976317  0.02540901  0.65806948    -0.19800
C1813       C  0.63164731  0.04082779  0.63748702     0.19400
C1814       C  0.63306053  0.02669276  0.61709246     0.01500
C1815       C  0.64634578  0.04394205  0.59708013    -0.14500
C1816       C  0.65578743  0.07350657  0.59696062    -0.12200
C1817       C  0.65206482  0.08638471  0.61668118     0.01100
C1818       C  0.64092698  0.07018207  0.63701225    -0.24400
H1819       H  0.59749112  0.93668969  0.58229286     0.09100
H1820       H  0.62718483  0.98904161  0.58113288     0.12600
H1821       H  0.57955903  0.93942106  0.65472221     0.11400
H1822       H  0.59775116  0.98426166  0.67463587     0.12600
H1823       H  0.61905073  0.03624968  0.67370258     0.11600
H1824       H  0.64900017  0.03500766  0.58117033     0.08700
H1825       H  0.66460551  0.08591015  0.58112069     0.11900
H1826       H  0.63850529  0.08036201  0.65240532     0.13800
C1827       C  0.54987386  0.82182219  0.54945223    -0.01700
C1828       C  0.55201836  0.83321069  0.52714645    -0.09700
C1829       C  0.55773032  0.82132378  0.50772833    -0.18600
C1830       C  0.56014332  0.79667355  0.50995263     0.03800
C1831       C  0.55861834  0.78573750  0.53276112     0.18000
C1832       C  0.55446383  0.79890363  0.55220776    -0.20000
C1833       C  0.55923118  0.76050286  0.53594672    -0.21200
C1834       C  0.55941666  0.74475699  0.51689762    -0.19800
C1835       C  0.55990442  0.75431645  0.49418610     0.19400
C1836       C  0.56175359  0.78115875  0.49036407     0.01500
C1837       C  0.56342214  0.79031791  0.46703351    -0.14500
C1838       C  0.56013972  0.77213225  0.44841488    -0.12200
C1839       C  0.55565914  0.74463780  0.45243204     0.01100
C1840       C  0.55668358  0.73629600  0.47527620    -0.24400
H1841       H  0.54839018  0.85083131  0.52463250     0.09100
H1842       H  0.55847098  0.83083080  0.49107131     0.12600
H1843       H  0.55225020  0.78961087  0.56937066     0.11400
H1844       H  0.55809401  0.75207749  0.55328380     0.12600
H1845       H  0.55835967  0.72451883  0.51995103     0.11600
H1846       H  0.56608121  0.81089429  0.46266358     0.08700
H1847       H  0.55911965  0.77877905  0.43082660     0.11900
H1848       H  0.55281239  0.71482937  0.47841466     0.13800
C1849       C  0.48475923  0.88702885  0.55395811    -0.01700
C1850       C  0.46704634  0.89844522  0.55482798    -0.09700
C1851       C  0.45744148  0.90442050  0.53419792    -0.18600
C1852       C  0.46510752  0.89863008  0.51216625     0.03800
C1853       C  0.48526648  0.88955073  0.51169133     0.18000
C1854       C  0.49483406  0.88389456  0.53248209    -0.20000
C1855       C  0.49418781  0.88409910  0.49050376    -0.21200
C1856       C  0.48184307  0.88523976  0.46973480    -0.19800
C1857       C  0.46010270  0.89156664  0.46973413     0.19400
C1858       C  0.45204772  0.89937952  0.49077618     0.01500
C1859       C  0.42961921  0.90518738  0.48965050    -0.14500
C1860       C  0.41404413  0.90053976  0.46902862    -0.12200
C1861       C  0.42094547  0.89085372  0.44895920     0.01100
C1862       C  0.44476776  0.88775873  0.44910109    -0.24400
H1863       H  0.45905566  0.90087741  0.57140981     0.09100
H1864       H  0.44302261  0.91222995  0.53604029     0.12600
H1865       H  0.50857488  0.87498843  0.53194542     0.11400
H1866       H  0.50988379  0.87761949  0.49007710     0.12600
H1867       H  0.48826066  0.87961173  0.45369774     0.11600
H1868       H  0.42248927  0.91160006  0.50470609     0.08700
H1869       H  0.39538510  0.90264632  0.46918375     0.11900
H1870       H  0.44975770  0.87983343  0.43354666     0.13800
C1871       C  0.15440756  0.66185476  0.68687026    -0.01700
C1872       C  0.15808569  0.64147585  0.69878616    -0.09700
C1873       C  0.16020879  0.64191867  0.72305938    -0.18600
C1874       C  0.15851886  0.66280438  0.73653476     0.03800
C1875       C  0.15433455  0.68322456  0.72450957     0.18000
C1876       C  0.15257731  0.68275303  0.69994077    -0.20000
C1877       C  0.15173887  0.70386383  0.73710948    -0.21200
C1878       C  0.15290145  0.70448791  0.76137443    -0.19800
C1879       C  0.15705035  0.68472134  0.77373680     0.19400
C1880       C  0.16035678  0.66385804  0.76148683     0.01500
C1881       C  0.16521020  0.64487545  0.77478761    -0.14500
C1882       C  0.16553529  0.64577266  0.79914467    -0.12200
C1883       C  0.16127749  0.66567748  0.81124382     0.01100
C1884       C  0.15755923  0.68547322  0.79831836    -0.24400
H1885       H  0.15959413  0.62507429  0.68926720     0.09100
H1886       H  0.16291830  0.62541951  0.73073721     0.12600
H1887       H  0.14954670  0.69854823  0.69101759     0.11400
H1888       H  0.14849550  0.71948547  0.72813783     0.12600
H1889       H  0.15046368  0.72053804  0.77054928     0.11600
H1890       H  0.16871965  0.62897060  0.76691910     0.08700
H1891       H  0.16892440  0.63052753  0.80856699     0.11900
H1892       H  0.15446236  0.70116290  0.80738833     0.13800
C1893       C  0.93092666  0.59617449  0.61205029    -0.01700
C1894       C  0.94600833  0.61384112  0.63105537    -0.09700
C1895       C  0.97609130  0.63175879  0.63030411    -0.18600
C1896       C  0.99180077  0.63206547  0.61049754     0.03800
C1897       C  0.97588218  0.61647536  0.59045836     0.18000
C1898       C  0.94581863  0.59888485  0.59141892    -0.20000
C1899       C  0.99007921  0.61666350  0.57010798    -0.21200
C1900       C  0.01982914  0.63018497  0.56971285    -0.19800
C1901       C  0.03603753  0.64342958  0.58976819     0.19400
C1902       C  0.02244537  0.64537028  0.61029325     0.01500
C1903       C  0.03985010  0.65834390  0.63022845    -0.14500
C1904       C  0.06881150  0.66658538  0.63031388    -0.12200
C1905       C  0.08149220  0.66315723  0.61039504     0.01100
C1906       C  0.06540336  0.65275145  0.58991723    -0.24400
H1907       H  0.93482525  0.61205225  0.64714785     0.09100
H1908       H  0.98653343  0.64397244  0.64584315     0.12600
H1909       H  0.93407840  0.58529788  0.57662501     0.11400
H1910       H  0.97800119  0.60517801  0.55467801     0.12600
H1911       H  0.03007329  0.62889847  0.55397165     0.11600
H1912       H  0.03131072  0.66081512  0.64639120     0.08700
H1913       H  0.08102930  0.67440159  0.64635108     0.11900
H1914       H  0.07518759  0.64968323  0.57461847     0.13800
C1915       C  0.12016137  0.58989199  0.55225945    -0.01700
C1916       C  0.10903961  0.59542735  0.53237766    -0.09700
C1917       C  0.10455868  0.57945330  0.51189309    -0.18600
C1918       C  0.11175041  0.55788415  0.51075138     0.03800
C1919       C  0.12070450  0.55091615  0.53171326     0.18000
C1920       C  0.12460050  0.56676566  0.55213612    -0.20000
C1921       C  0.12795688  0.52974016  0.53181610    -0.21200
C1922       C  0.12885102  0.51692989  0.51117257    -0.19800
C1923       C  0.12251335  0.52501337  0.48997242     0.19400
C1924       C  0.11265955  0.54463662  0.48942208     0.01500
C1925       C  0.10640456  0.55174955  0.46735000    -0.14500
C1926       C  0.11259625  0.54216336  0.44675181    -0.12200
C1927       C  0.12456895  0.52488172  0.44768122     0.01100
C1928       C  0.12817733  0.51528915  0.46921942    -0.24400
H1929       H  0.10575746  0.61345023  0.53217524     0.09100
H1930       H  0.09699465  0.58554096  0.49692949     0.12600
H1931       H  0.13346031  0.56269100  0.56754981     0.11400
H1932       H  0.13440133  0.52409994  0.54782086     0.12600
H1933       H  0.13596337  0.50167011  0.51166896     0.11600
H1934       H  0.09822316  0.56589587  0.46544932     0.08700
H1935       H  0.10987396  0.54987695  0.43013109     0.11900
H1936       H  0.13761420  0.50199204  0.46982299     0.13800
C1937       C  0.28113061  0.81529162  0.45070784    -0.01700
C1938       C  0.28779682  0.82754359  0.47302448    -0.09700
C1939       C  0.26986001  0.81286780  0.49200968    -0.18600
C1940       C  0.24526533  0.78469196  0.48940084     0.03800
C1941       C  0.23834254  0.77269431  0.46656221     0.18000
C1942       C  0.25570426  0.78839371  0.44746296    -0.20000
C1943       C  0.21522677  0.74435182  0.46310039    -0.21200
C1944       C  0.19981231  0.72703530  0.48195732    -0.19800
C1945       C  0.20650042  0.73788302  0.50472575     0.19400
C1946       C  0.22844380  0.76725682  0.50871628     0.01500
C1947       C  0.23319902  0.77746991  0.53196634    -0.14500
C1948       C  0.21839142  0.75876829  0.55053722    -0.12200
C1949       C  0.19849240  0.72926411  0.54666400     0.01100
C1950       C  0.19207555  0.71920350  0.52359550    -0.24400
H1951       H  0.30748108  0.84817991  0.47591810     0.09100
H1952       H  0.27671802  0.82340793  0.50872356     0.12600
H1953       H  0.25078223  0.77849784  0.43030585     0.11400
H1954       H  0.20982740  0.73506272  0.44575115     0.12600
H1955       H  0.18285856  0.70480150  0.47873077     0.11600
H1956       H  0.24858993  0.79970866  0.53637249     0.08700
H1957       H  0.22366205  0.76721401  0.56813392     0.11900
H1958       H  0.17644341  0.69651893  0.52033579     0.13800
C1959       C  0.25827606  0.72448938  0.62683467    -0.01700
C1960       C  0.27328066  0.75375846  0.63284715    -0.09700
C1961       C  0.30322564  0.76895867  0.63531375    -0.18600
C1962       C  0.31883212  0.75506251  0.63171048     0.03800
C1963       C  0.30290916  0.72467525  0.62784417     0.18000
C1964       C  0.27296482  0.70980989  0.62532911    -0.20000
C1965       C  0.31704622  0.70955787  0.62516313    -0.21200
C1966       C  0.34688516  0.72427595  0.62462907    -0.19800
C1967       C  0.36322289  0.75446808  0.62641912     0.19400
C1968       C  0.34952631  0.77028132  0.63057696     0.01500
C1969       C  0.36707969  0.80075417  0.63205704    -0.14500
C1970       C  0.39670410  0.81493984  0.62833784    -0.12200
C1971       C  0.40990324  0.79933277  0.62319030     0.01100
C1972       C  0.39310005  0.76901823  0.62299675    -0.24400
H1973       H  0.26207953  0.76528931  0.63418748     0.09100
H1974       H  0.31359214  0.79169349  0.63923906     0.12600
H1975       H  0.26113850  0.68697577  0.62089589     0.11400
H1976       H  0.30493144  0.68629423  0.62267573     0.12600
H1977       H  0.35720880  0.71206583  0.62180932     0.11600
H1978       H  0.35847028  0.81432045  0.63526387     0.08700
H1979       H  0.40919166  0.83837108  0.62880119     0.11900
H1980       H  0.40311336  0.75668276  0.61930402     0.13800
C1981       C  0.33586320  0.49066895  0.69399398    -0.01700
C1982       C  0.31005770  0.47294500  0.70599825    -0.09700
C1983       C  0.30946212  0.47176708  0.73041140    -0.18600
C1984       C  0.33492477  0.48805462  0.74375464     0.03800
C1985       C  0.36110202  0.50557529  0.73145922     0.18000
C1986       C  0.36127399  0.50701626  0.70695068    -0.20000
C1987       C  0.38706590  0.52147150  0.74367660    -0.21200
C1988       C  0.38768927  0.52043402  0.76788623    -0.19800
C1989       C  0.36230362  0.50385791  0.78062808     0.19400
C1990       C  0.33548504  0.48758104  0.76876776     0.01500
C1991       C  0.31043494  0.47188814  0.78251742    -0.14500
C1992       C  0.31194308  0.47259519  0.80686686    -0.12200
C1993       C  0.33840040  0.48851100  0.81854108     0.01100
C1994       C  0.36357100  0.50384921  0.80520805    -0.24400
H1995       H  0.29012126  0.46007098  0.69646439     0.09100
H1996       H  0.28878114  0.45767293  0.73831965     0.12600
H1997       H  0.38144777  0.52057110  0.69789589     0.11400
H1998       H  0.40712486  0.53475338  0.73441576     0.12600
H1999       H  0.40819923  0.53296535  0.77673233     0.11600
H2000       H  0.28926684  0.45922656  0.77498276     0.08700
H2001       H  0.29212384  0.46051097  0.81665550     0.11900
H2002       H  0.38412975  0.51650590  0.81398304     0.13800
C2003       C  0.34142179  0.42135962  0.61920100    -0.01700
C2004       C  0.34683170  0.41198480  0.64013138    -0.09700
C2005       C  0.35721176  0.39342562  0.64025066    -0.18600
C2006       C  0.36346530  0.38428357  0.61920158     0.03800
C2007       C  0.35600325  0.39216547  0.59791450     0.18000
C2008       C  0.34481034  0.41045412  0.59808234    -0.20000
C2009       C  0.36135875  0.38312016  0.57665737    -0.21200
C2010       C  0.37561781  0.36803886  0.57602842    -0.19800
C2011       C  0.38518202  0.36190690  0.59662083     0.19400
C2012       C  0.37847511  0.36922698  0.61854716     0.01500
C2013       C  0.38891499  0.36304765  0.63886097    -0.14500
C2014       C  0.40727398  0.35255285  0.63738411    -0.12200
C2015       C  0.41521583  0.34698421  0.61579829     0.01100
C2016       C  0.40311056  0.35038888  0.59544265    -0.24400
H2017       H  0.34415140  0.42012109  0.65658745     0.09100
H2018       H  0.36116311  0.38763050  0.65714752     0.12600
H2019       H  0.34084327  0.41792011  0.58181627     0.11400
H2020       H  0.35539963  0.38864332  0.56035570     0.12600
H2021       H  0.38032894  0.36228141  0.55925260     0.11600
H2022       H  0.38462806  0.36750597  0.65616295     0.08700
H2023       H  0.41654527  0.35010932  0.65326450     0.11900
H2024       H  0.40959328  0.34646597  0.57867321     0.13800
C2025       C  0.27162240  0.46445248  0.55246604    -0.01700
C2026       C  0.28064691  0.46175872  0.53029943    -0.09700
C2027       C  0.26380783  0.45781090  0.51060837    -0.18600
C2028       C  0.23794631  0.45784512  0.51242372     0.03800
C2029       C  0.22881875  0.46030264  0.53504825     0.18000
C2030       C  0.24510218  0.46249904  0.55479400    -0.20000
C2031       C  0.20458057  0.46257187  0.53772466    -0.21200
C2032       C  0.19028462  0.46436450  0.51833633    -0.19800
C2033       C  0.19908916  0.46264771  0.49579978     0.19400
C2034       C  0.22200206  0.45770544  0.49256124     0.01500
C2035       C  0.22856740  0.45389776  0.46951516    -0.14500
C2036       C  0.21483534  0.45756292  0.45046643    -0.12200
C2037       C  0.19438157  0.46543080  0.45368437     0.01100
C2038       C  0.18591710  0.46700077  0.47645051    -0.24400
H2039       H  0.30125041  0.46359422  0.52812685     0.09100
H2040       H  0.27248495  0.45662853  0.49406691     0.12600
H2041       H  0.23839187  0.46534689  0.57186384     0.11400
H2042       H  0.19751237  0.46447045  0.55492019     0.12600
H2043       H  0.17251952  0.46761156  0.52098636     0.11600
H2044       H  0.24456056  0.44854323  0.46567320     0.08700
H2045       H  0.22158951  0.45596170  0.43307458     0.11900
H2046       H  0.16977408  0.47263024  0.47911901     0.13800
C2047       C  0.40976962  0.53471300  0.56120023    -0.01700
C2048       C  0.40436558  0.51820363  0.54103078    -0.09700
C2049       C  0.42169679  0.53036731  0.52130068    -0.18600
C2050       C  0.44458373  0.55971095  0.52121804     0.03800
C2051       C  0.45112605  0.57545503  0.54249069     0.18000
C2052       C  0.43381687  0.56280466  0.56218578    -0.20000
C2053       C  0.47358195  0.60441792  0.54357335    -0.21200
C2054       C  0.48829863  0.61888577  0.52353973    -0.19800
C2055       C  0.48084164  0.60472021  0.50198501     0.19400
C2056       C  0.45976061  0.57465224  0.50056138     0.01500
C2057       C  0.45349102  0.56148263  0.47827361    -0.14500
C2058       C  0.46546141  0.57807553  0.45814007    -0.12200
C2059       C  0.48417812  0.60811997  0.45964261     0.01100
C2060       C  0.49296375  0.62097841  0.48167832    -0.24400
H2061       H  0.38562535  0.49648744  0.54003903     0.09100
H2062       H  0.41573338  0.51677490  0.50606945     0.12600
H2063       H  0.43773953  0.57559257  0.57784936     0.11400
H2064       H  0.47889449  0.61635507  0.55982742     0.12600
H2065       H  0.50468065  0.64169383  0.52474728     0.11600
H2066       H  0.43844310  0.53867272  0.47575194     0.08700
H2067       H  0.45864551  0.56757216  0.44130200     0.11900
H2068       H  0.50792497  0.64415442  0.48301010     0.13800
C2069       C  0.48304211  0.75286442  0.62695414    -0.01700
C2070       C  0.45539878  0.74020605  0.63625980    -0.09700
C2071       C  0.43839309  0.71031255  0.63917543    -0.18600
C2072       C  0.44861740  0.69221451  0.63244883     0.03800
C2073       C  0.47758997  0.70561811  0.62458712     0.18000
C2074       C  0.49444613  0.73575608  0.62177788    -0.20000
C2075       C  0.48910354  0.68878187  0.61851556    -0.21200
C2076       C  0.47214128  0.65878822  0.61918937    -0.19800
C2077       C  0.44310036  0.64494466  0.62542808     0.19400
C2078       C  0.43087168  0.66138299  0.63227981     0.01500
C2079       C  0.40107073  0.64626778  0.63736476    -0.14500
C2080       C  0.38402279  0.61625095  0.63478111    -0.12200
C2081       C  0.39623732  0.60033651  0.62778182     0.01100
C2082       C  0.42590377  0.61473161  0.62377868    -0.24400
H2083       H  0.44641767  0.75340818  0.64025369     0.09100
H2084       H  0.41713966  0.70201040  0.64611723     0.12600
H2085       H  0.51586770  0.74576931  0.61439397     0.11400
H2086       H  0.51121945  0.69887027  0.61274232     0.12600
H2087       H  0.48153746  0.64632507  0.61395902     0.11600
H2088       H  0.39007166  0.65707677  0.64247126     0.08700
H2089       H  0.36110063  0.60546565  0.63796004     0.11900
H2090       H  0.43539040  0.60252482  0.61801515     0.13800
C2091       C  0.26713514  0.52341857  0.62983097    -0.01700
C2092       C  0.28008054  0.55054740  0.64048343    -0.09700
C2093       C  0.26547151  0.56521046  0.64218422    -0.18600
C2094       C  0.23749000  0.55320600  0.63277575     0.03800
C2095       C  0.22393464  0.52484270  0.62313582     0.18000
C2096       C  0.23886396  0.51026953  0.62173233    -0.20000
C2097       C  0.19616546  0.51182850  0.61384191    -0.21200
C2098       C  0.18195133  0.52683806  0.61296490    -0.19800
C2099       C  0.19529222  0.55533952  0.62112514     0.19400
C2100       C  0.22308754  0.56881418  0.63149779     0.01500
C2101       C  0.23586762  0.59785996  0.63898495    -0.14500
C2102       C  0.22244213  0.61333185  0.63497571    -0.12200
C2103       C  0.19557451  0.60024295  0.62404561     0.01100
C2104       C  0.18160001  0.57095356  0.61791576    -0.24400
H2105       H  0.30216677  0.56108451  0.64646206     0.09100
H2106       H  0.27707169  0.58627887  0.65021628     0.12600
H2107       H  0.22914099  0.48941463  0.61308950     0.11400
H2108       H  0.18565908  0.49015394  0.60662951     0.12600
H2109       H  0.16075620  0.51641699  0.60511575     0.11600
H2110       H  0.25668714  0.60962313  0.64719509     0.08700
H2111       H  0.23343192  0.63592049  0.64001991     0.11900
H2112       H  0.16088082  0.56084981  0.60924447     0.13800
loop_ 
_geom_bond_atom_site_label_1 
_geom_bond_atom_site_label_2 
_geom_bond_distance 
_geom_bond_site_symmetry_2 
_ccdc_geom_bond_type 
O1          Cr19   1.998       .  S
O1            C9   1.263       .  A
O2          Cr19   1.979       .  S
O2            C3   1.260       .  A
C3            O4   1.269       .  A
C3         C2025   1.479       .  S
O4          Cr20   2.024       .  S
O5          Cr20   1.998       .  S
O5            C6   1.264       .  A
C6            O7   1.265       .  A
C6         C2003   1.472       .  S
O7          Cr21   1.996       .  S
O8          Cr21   1.989       .  S
O8            C9   1.260       .  A
C9         C2047   1.465       .  S
O10         Cr19   1.977       .  S
O10          C18   1.259       .  A
O11         Cr19   1.996       .  S
O11          C12   1.262       .  A
C12          O13   1.261       .  A
C12        C2091   1.462       .  S
O13         Cr20   1.988       .  S
O14         Cr20   2.025       .  S
O14          C15   1.271       .  A
C15          O16   1.262       .  A
C15        C1981   1.490       .  S
O16         Cr21   1.980       .  S
O17         Cr21   2.008       .  S
O17          C18   1.266       .  A
C18        C2081   1.473       .  S
Cr19         O22   1.764       .  S
Cr20         O22   1.772       .  S
Cr21         O22   1.769       .  S
O23         Cr41   1.996       .  S
O23          C31   1.263       .  A
O24         Cr41   1.979       .  S
O24          C25   1.262       .  A
C25          O26   1.272       .  A
C25        C1949   1.489       .  S
O26         Cr42   2.032       .  S
O27         Cr42   1.989       .  S
O27          C28   1.263       .  A
C28          O29   1.266       .  A
C28        C1905   1.470       .  S
O29         Cr43   2.007       .  S
O30         Cr43   1.997       .  S
O30          C31   1.262       .  A
C31        C1915   1.470       .  S
O32         Cr41   1.968       .  S
O32          C40   1.257       .  A
O33         Cr41   1.987       .  S
O33          C34   1.261       .  A
C34          O35   1.260       .  A
C34        C1959   1.466       .  S
O35         Cr42   1.991       .  S
O36         Cr42   2.025       .  S
O36          C37   1.269       .  A
C37          O38   1.262       .  A
C37        C1871   1.491       .  S
O38         Cr43   1.979       .  S
O39         Cr43   2.021       .  S
O39          C40   1.267       .  A
C40        C2103   1.472       .  S
Cr41         O44   1.763       .  S
Cr42         O44   1.776       .  S
Cr43         O44   1.771       .  S
O45         Cr63   1.992       .  S
O45          C53   1.264       .  A
O46         Cr63   1.981       .  S
O46          C47   1.258       .  A
C47          O48   1.267       .  A
C47        C1827   1.481       .  S
O48         Cr64   2.021       .  S
O49         Cr64   1.997       .  S
O49          C50   1.265       .  A
C50          O51   1.266       .  A
C50        C1805   1.472       .  S
O51         Cr65   1.994       .  S
O52         Cr65   1.985       .  S
O52          C53   1.261       .  A
C53        C1849   1.465       .  S
O54         Cr63   1.980       .  S
O54          C62   1.259       .  A
O55         Cr63   1.996       .  S
O55          C56   1.263       .  A
C56          O57   1.260       .  A
C56        C2069   1.458       .  S
O57         Cr64   1.982       .  S
O58         Cr64   2.012       .  S
O58          C59   1.268       .  A
C59          O60   1.262       .  A
C59        C1783   1.483       .  S
O60         Cr65   1.980       .  S
O61         Cr65   2.004       .  S
O61          C62   1.264       .  A
C62        C1971   1.482       .  S
Cr63         O66   1.763       .  S
Cr64         O66   1.772       .  S
Cr65         O66   1.769       .  S
O67         Cr85   1.997       .  S
O67          C75   1.264       .  A
O68         Cr85   1.979       .  S
O68          C69   1.260       .  A
C69          O70   1.269       .  A
C69        C2037   1.483       .  S
O70         Cr86   2.022       .  S
O71         Cr86   2.008       .  S
O71          C72   1.266       .  A
C72          O73   1.263       .  A
C72        C1717   1.479       .  S
O73         Cr87   1.996       .  S
O74         Cr87   1.987       .  S
O74          C75   1.260       .  A
C75        C1927   1.467       .  S
O76         Cr85   1.975       .  S
O76          C84   1.258       .  A
O77         Cr85   1.992       .  S
O77          C78   1.263       .  A
C78          O79   1.264       .  A
C78        C1761   1.480       .  S
O79         Cr86   2.003       .  S
O80         Cr86   2.017       .  S
O80          C81   1.270       .  A
C81          O82   1.261       .  A
C81        C1695   1.475       .  S
O82         Cr87   1.971       .  S
O83         Cr87   2.012       .  S
O83          C84   1.265       .  A
C84        C1739   1.475       .  S
Cr85         O88   1.763       .  S
Cr86         O88   1.775       .  S
Cr87         O88   1.777       .  S
O89        Cr107   1.995       .  S
O89          C97   1.263       .  A
O90        Cr107   1.980       .  S
O90          C91   1.259       .  A
C91          O92   1.269       .  A
C91        C1937   1.481       .  S
O92        Cr108   2.029       .  S
O93        Cr108   1.990       .  S
O93          C94   1.264       .  A
C94          O95   1.267       .  A
C94        C1651   1.469       .  S
O95        Cr109   2.006       .  S
O96        Cr109   1.990       .  S
O96          C97   1.261       .  A
C97        C1861   1.466       .  S
O98        Cr107   1.969       .  S
O98         C106   1.259       .  A
O99        Cr107   1.999       .  S
O99         C100   1.264       .  A
C100        O101   1.262       .  A
C100       C1751   1.462       .  S
O101       Cr108   1.987       .  S
O102       Cr108   2.024       .  S
O102        C103   1.269       .  A
C103        O104   1.262       .  A
C103       C1629   1.493       .  S
O104       Cr109   1.984       .  S
O105       Cr109   2.017       .  S
O105        C106   1.267       .  A
C106       C1673   1.479       .  S
Cr107       O110   1.763       .  S
Cr108       O110   1.773       .  S
Cr109       O110   1.771       .  S
O111       Cr129   1.967       .  S
O111        C119   1.260       .  A
O112       Cr129   1.994       .  S
O112        C113   1.259       .  A
C113        O114   1.261       .  A
C113       C1839   1.472       .  S
O114       Cr130   1.997       .  S
O115       Cr130   2.026       .  S
O115        C116   1.269       .  A
C116        O117   1.260       .  A
C116       C1607   1.475       .  S
O117       Cr131   1.968       .  S
O118       Cr131   2.028       .  S
O118        C119   1.271       .  A
C119       C2059   1.480       .  S
O120       Cr129   1.997       .  S
O120        C128   1.262       .  A
O121       Cr129   1.957       .  S
O121        C122   1.259       .  A
C122        O123   1.273       .  A
C122       C1685   1.477       .  S
O123       Cr130   2.031       .  S
O124       Cr130   1.969       .  S
O124        C125   1.259       .  A
C125        O126   1.269       .  A
C125       C1597   1.486       .  S
O126       Cr131   2.021       .  S
O127       Cr131   1.996       .  S
O127        C128   1.260       .  A
C128       C1773   1.477       .  S
Cr129       O132   1.760       .  S
Cr130       O132   1.778       .  S
Cr131       O132   1.776       .  S
O133       Cr151   2.023       .  S
O133        C141   1.269       .  A
O134       Cr151   1.963       .  S
O134        C135   1.257       .  A
C135        O136   1.270       .  A
C135       C1619   1.475       .  S
O136       Cr152   2.032       .  S
O137       Cr152   2.003       .  S
O137        C138   1.264       .  A
C138        O139   1.263       .  A
C138       C1497   1.477       .  S
O139       Cr153   2.004       .  S
O140       Cr153   1.973       .  S
O140        C141   1.262       .  A
C141       C1531   1.478       .  S
O142       Cr151   1.986       .  S
O142        C150   1.258       .  A
O143       Cr151   2.016       .  S
O143        C144   1.268       .  A
C144        O145   1.262       .  A
C144       C1475   1.492       .  S
O145       Cr152   1.984       .  S
O146       Cr152   2.031       .  S
O146        C147   1.272       .  A
C147        O148   1.260       .  A
C147       C1563   1.480       .  S
O148       Cr153   1.964       .  S
O149       Cr153   2.002       .  S
O149        C150   1.263       .  A
C150       C1553   1.465       .  S
Cr151       O154   1.768       .  S
Cr152       O154   1.773       .  S
Cr153       O154   1.759       .  S
O155       Cr173   1.992       .  S
O155        C163   1.261       .  A
O156       Cr173   1.999       .  S
O156        C157   1.266       .  A
C157        O158   1.265       .  A
C157       C2015   1.473       .  S
O158       Cr174   1.999       .  S
O159       Cr174   2.031       .  S
O159        C160   1.270       .  A
C160        O161   1.259       .  A
C160       C1409   1.482       .  S
O161       Cr175   1.973       .  S
O162       Cr175   1.993       .  S
O162        C163   1.263       .  A
C163       C1519   1.465       .  S
O164       Cr173   2.018       .  S
O164        C172   1.267       .  A
O165       Cr173   1.975       .  S
O165        C166   1.262       .  A
C166        O167   1.269       .  A
C166       C1387   1.485       .  S
O167       Cr174   2.017       .  S
O168       Cr174   1.990       .  S
O168        C169   1.260       .  A
C169        O170   1.261       .  A
C169       C1453   1.464       .  S
O170       Cr175   1.996       .  S
O171       Cr175   1.973       .  S
O171        C172   1.259       .  A
C172       C1431   1.482       .  S
Cr173       O176   1.769       .  S
Cr174       O176   1.775       .  S
Cr175       O176   1.761       .  S
O177       Cr195   1.989       .  S
O177        C185   1.260       .  A
O178       Cr195   1.997       .  S
O178        C179   1.265       .  A
C179        O180   1.263       .  A
C179       C1663   1.469       .  S
O180       Cr196   1.994       .  S
O181       Cr196   2.026       .  S
O181        C182   1.269       .  A
C182        O183   1.260       .  A
C182       C1421   1.478       .  S
O183       Cr197   1.979       .  S
O184       Cr197   1.995       .  S
O184        C185   1.263       .  A
C185       C1343   1.466       .  S
O186       Cr195   2.011       .  S
O186        C194   1.267       .  A
O187       Cr195   1.965       .  S
O187        C188   1.259       .  A
C188        O189   1.268       .  A
C188       C1321   1.480       .  S
O189       Cr196   2.018       .  S
O190       Cr196   1.992       .  S
O190        C191   1.261       .  A
C191        O192   1.264       .  A
C191       C1541   1.467       .  S
O192       Cr197   2.001       .  S
O193       Cr197   1.978       .  S
O193        C194   1.262       .  A
C194       C1365   1.483       .  S
Cr195       O198   1.766       .  S
Cr196       O198   1.772       .  S
Cr197       O198   1.761       .  S
O199       Cr217   2.023       .  S
O199        C207   1.269       .  A
O200       Cr217   1.955       .  S
O200        C201   1.258       .  A
C201        O202   1.272       .  A
C201       C1893   1.475       .  S
O202       Cr218   2.036       .  S
O203       Cr218   2.005       .  S
O203        C204   1.262       .  A
C204        O205   1.258       .  A
C204       C1509   1.475       .  S
O205       Cr219   1.987       .  S
O206       Cr219   1.978       .  S
O206        C207   1.261       .  A
C207       C1289   1.477       .  S
O208       Cr217   1.991       .  S
O208        C216   1.259       .  A
O209       Cr217   2.008       .  S
O209        C210   1.265       .  A
C210        O211   1.261       .  A
C210       C1255   1.492       .  S
O211       Cr218   1.988       .  S
O212       Cr218   2.034       .  S
O212        C213   1.274       .  A
C213        O214   1.262       .  A
C213       C1443   1.483       .  S
O214       Cr219   1.962       .  S
O215       Cr219   1.994       .  S
O215        C216   1.262       .  A
C216       C1299   1.471       .  S
Cr217       O220   1.771       .  S
Cr218       O220   1.778       .  S
Cr219       O220   1.761       .  S
O221       Cr239   1.993       .  S
O221        C229   1.262       .  A
O222       Cr239   2.003       .  S
O222        C223   1.267       .  A
C223        O224   1.266       .  A
C223       C1729   1.476       .  S
O224       Cr240   1.999       .  S
O225       Cr240   2.015       .  S
O225        C226   1.266       .  A
C226        O227   1.260       .  A
C226       C1233   1.477       .  S
O227       Cr241   1.978       .  S
O228       Cr241   1.990       .  S
O228        C229   1.262       .  A
C229       C1277   1.467       .  S
O230       Cr239   2.013       .  S
O230        C238   1.265       .  A
O231       Cr239   1.986       .  S
O231        C232   1.262       .  A
C232        O233   1.267       .  A
C232       C1211   1.486       .  S
O233       Cr240   2.007       .  S
O234       Cr240   1.998       .  S
O234        C235   1.263       .  A
C235        O236   1.262       .  A
C235       C1377   1.471       .  S
O236       Cr241   1.990       .  S
O237       Cr241   1.974       .  S
O237        C238   1.259       .  A
C238       C1575   1.475       .  S
Cr239       O242   1.773       .  S
Cr240       O242   1.776       .  S
Cr241       O242   1.762       .  S
O243       Cr261   1.996       .  S
O243        C251   1.263       .  A
O244       Cr261   1.994       .  S
O244        C245   1.264       .  A
C245        O246   1.261       .  A
C245       C1817   1.470       .  S
O246       Cr262   1.993       .  S
O247       Cr262   2.011       .  S
O247        C248   1.266       .  A
C248        O249   1.261       .  A
C248       C1245   1.475       .  S
O249       Cr263   1.982       .  S
O250       Cr263   1.987       .  S
O250        C251   1.262       .  A
C251       C1355   1.469       .  S
O252       Cr261   2.004       .  S
O252        C260   1.265       .  A
O253       Cr261   1.982       .  S
O253        C254   1.264       .  A
C254        O255   1.267       .  A
C254       C1189   1.482       .  S
O255       Cr262   2.006       .  S
O256       Cr262   1.997       .  S
O256        C257   1.261       .  A
C257        O258   1.262       .  A
C257       C1311   1.468       .  S
O258       Cr263   1.982       .  S
O259       Cr263   1.988       .  S
O259        C260   1.262       .  A
C260       C1465   1.481       .  S
Cr261       O264   1.770       .  S
Cr262       O264   1.774       .  S
Cr263       O264   1.760       .  S
O265       Cr283   1.971       .  S
O265        C273   1.262       .  A
O266       Cr283   1.994       .  S
O266        C267   1.260       .  A
C267        O268   1.264       .  A
C267       C1101   1.479       .  S
O268       Cr284   2.010       .  S
O269       Cr284   2.029       .  S
O269        C270   1.271       .  A
C270        O271   1.260       .  A
C270       C1079   1.476       .  S
O271       Cr285   1.970       .  S
O272       Cr285   2.025       .  S
O272        C273   1.271       .  A
C273       C1123   1.478       .  S
O274       Cr283   1.989       .  S
O274        C282   1.260       .  A
O275       Cr283   1.957       .  S
O275        C276   1.258       .  A
C276        O277   1.272       .  A
C276       C1179   1.471       .  S
O277       Cr284   2.031       .  S
O278       Cr284   1.983       .  S
O278        C279   1.262       .  A
C279        O280   1.268       .  A
C279       C1487   1.493       .  S
O280       Cr285   2.018       .  S
O281       Cr285   1.994       .  S
O281        C282   1.260       .  A
C282       C1145   1.470       .  S
Cr283       O286   1.760       .  S
Cr284       O286   1.774       .  S
Cr285       O286   1.773       .  S
O287       Cr305   1.992       .  S
O287        C295   1.262       .  A
O288       Cr305   1.970       .  S
O288        C289   1.258       .  A
C289        O290   1.268       .  A
C289       C1013   1.471       .  S
O290       Cr306   2.019       .  S
O291       Cr306   1.995       .  S
O291        C292   1.264       .  A
C292        O293   1.266       .  A
C292       C1003   1.471       .  S
O293       Cr307   2.005       .  S
O294       Cr307   1.988       .  S
O294        C295   1.260       .  A
C295       C1135   1.463       .  S
O296       Cr305   1.971       .  S
O296        C304   1.260       .  A
O297       Cr305   1.998       .  S
O297        C298   1.262       .  A
C298        O299   1.263       .  A
C298       C1057   1.468       .  S
O299       Cr306   1.998       .  S
O300       Cr306   2.016       .  S
O300        C301   1.268       .  A
C301        O302   1.260       .  A
C301       C1399   1.484       .  S
O302       Cr307   1.971       .  S
O303       Cr307   2.013       .  S
O303        C304   1.267       .  A
C304       C1047   1.479       .  S
Cr305       O308   1.759       .  S
Cr306       O308   1.774       .  S
Cr307       O308   1.769       .  S
O309       Cr327   1.999       .  S
O309        C317   1.265       .  A
O310       Cr327   1.973       .  S
O310        C311   1.257       .  A
C311        O312   1.269       .  A
C311        C947   1.478       .  S
O312       Cr328   2.029       .  S
O313       Cr328   1.987       .  S
O313        C314   1.262       .  A
C314        O315   1.267       .  A
C314        C903   1.470       .  S
O315       Cr329   2.004       .  S
O316       Cr329   1.982       .  S
O316        C317   1.261       .  A
C317        C925   1.464       .  S
O318       Cr327   1.978       .  S
O318        C326   1.259       .  A
O319       Cr327   1.996       .  S
O319        C320   1.265       .  A
C320        O321   1.258       .  A
C320        C981   1.462       .  S
O321       Cr328   1.974       .  S
O322       Cr328   2.025       .  S
O322        C323   1.271       .  A
C323        O324   1.260       .  A
C323       C1201   1.483       .  S
O324       Cr329   1.966       .  S
O325       Cr329   2.017       .  S
O325        C326   1.266       .  A
C326       C1069   1.483       .  S
Cr327       O330   1.759       .  S
Cr328       O330   1.778       .  S
Cr329       O330   1.768       .  S
O331       Cr349   1.955       .  S
O331        C339   1.257       .  A
O332       Cr349   1.998       .  S
O332        C333   1.262       .  A
C333        O334   1.264       .  A
C333       C1113   1.477       .  S
O334       Cr350   2.001       .  S
O335       Cr350   2.036       .  S
O335        C336   1.271       .  A
C336        O337   1.256       .  A
C336        C859   1.471       .  S
O337       Cr351   1.959       .  S
O338       Cr351   2.039       .  S
O338        C339   1.272       .  A
C339        C881   1.481       .  S
O340       Cr349   1.998       .  S
O340        C348   1.263       .  A
O341       Cr349   1.954       .  S
O341        C342   1.258       .  A
C342        O343   1.274       .  A
C342       C1035   1.483       .  S
O343       Cr350   2.038       .  S
O344       Cr350   1.974       .  S
O344        C345   1.261       .  A
C345        O346   1.271       .  A
C345       C1267   1.490       .  S
O346       Cr351   2.026       .  S
O347       Cr351   1.976       .  S
O347        C348   1.256       .  A
C348        C969   1.464       .  S
Cr349       O352   1.756       .  S
Cr350       O352   1.774       .  S
Cr351       O352   1.774       .  S
O353       Cr371   1.998       .  S
O353        C361   1.263       .  A
O354       Cr371   1.975       .  S
O354        C355   1.260       .  A
C355        O356   1.267       .  A
C355       C1025   1.472       .  S
O356       Cr372   2.010       .  S
O357       Cr372   1.991       .  S
O357        C358   1.262       .  A
C358        O359   1.265       .  A
C358        C815   1.465       .  S
O359       Cr373   1.996       .  S
O360       Cr373   1.986       .  S
O360        C361   1.259       .  A
C361        C937   1.464       .  S
O362       Cr371   1.969       .  S
O362        C370   1.259       .  A
O363       Cr371   1.992       .  S
O363        C364   1.263       .  A
C364        O365   1.262       .  A
C364       C1157   1.471       .  S
O365       Cr372   1.994       .  S
O366       Cr372   2.011       .  S
O366        C367   1.267       .  A
C367        O368   1.260       .  A
C367       C1333   1.478       .  S
O368       Cr373   1.967       .  S
O369       Cr373   2.015       .  S
O369        C370   1.267       .  A
C370        C837   1.478       .  S
Cr371       O374   1.759       .  S
Cr372       O374   1.775       .  S
Cr373       O374   1.766       .  S
O375       Cr393   1.995       .  S
O375        C383   1.262       .  A
O376       Cr393   1.973       .  S
O376        C377   1.260       .  A
C377        O378   1.271       .  A
C377        C959   1.480       .  S
O378       Cr394   2.027       .  S
O379       Cr394   1.988       .  S
O379        C380   1.262       .  A
C380        O381   1.265       .  A
C380        C793   1.468       .  S
O381       Cr395   2.004       .  S
O382       Cr395   1.992       .  S
O382        C383   1.260       .  A
C383        C893   1.466       .  S
O384       Cr393   1.968       .  S
O384        C392   1.258       .  A
O385       Cr393   1.989       .  S
O385        C386   1.261       .  A
C386        O387   1.261       .  A
C386        C849   1.463       .  S
O387       Cr394   1.991       .  S
O388       Cr394   2.021       .  S
O388        C389   1.270       .  A
C389        O390   1.261       .  A
C389       C1223   1.487       .  S
O390       Cr395   1.975       .  S
O391       Cr395   2.019       .  S
O391        C392   1.267       .  A
C392       C1167   1.472       .  S
Cr393       O396   1.760       .  S
Cr394       O396   1.774       .  S
Cr395       O396   1.770       .  S
O397       Cr415   2.037       .  S
O397        C405   1.275       .  A
O398       Cr415   1.962       .  S
O398        C399   1.257       .  A
C399        O400   1.270       .  A
C399        C991   1.475       .  S
O400       Cr416   2.025       .  S
O401       Cr416   2.006       .  S
O401        C402   1.260       .  A
C402        O403   1.257       .  A
C402        C717   1.473       .  S
O403       Cr417   1.986       .  S
O404       Cr417   1.960       .  S
O404        C405   1.262       .  A
C405        C739   1.482       .  S
O406       Cr415   1.990       .  S
O406        C414   1.257       .  A
O407       Cr415   2.026       .  S
O407        C408   1.271       .  A
C408        O409   1.260       .  A
C408       C1993   1.492       .  S
O409       Cr416   1.973       .  S
O410       Cr416   2.039       .  S
O410        C411   1.275       .  A
C411        O412   1.261       .  A
C411        C783   1.476       .  S
O412       Cr417   1.957       .  S
O413       Cr417   1.985       .  S
O413        C414   1.258       .  A
C414        C749   1.468       .  S
Cr415       O418   1.773       .  S
Cr416       O418   1.775       .  S
Cr417       O418   1.759       .  S
O419       Cr437   2.028       .  S
O419        C427   1.270       .  A
O420       Cr437   1.956       .  S
O420        C421   1.258       .  A
C421        O422   1.273       .  A
C421        C805   1.477       .  S
O422       Cr438   2.037       .  S
O423       Cr438   1.990       .  S
O423        C424   1.259       .  A
C424        O425   1.260       .  A
C424        C705   1.469       .  S
O425       Cr439   1.990       .  S
O426       Cr439   1.973       .  S
O426        C427   1.261       .  A
C427        C651   1.480       .  S
O428       Cr437   1.982       .  S
O428        C436   1.258       .  A
O429       Cr437   2.019       .  S
O429        C430   1.268       .  A
C430        O431   1.258       .  A
C430       C1707   1.484       .  S
O431       Cr438   1.965       .  S
O432       Cr438   2.043       .  S
O432        C433   1.275       .  A
C433        O434   1.259       .  A
C433        C683   1.485       .  S
O434       Cr439   1.959       .  S
O435       Cr439   1.992       .  S
O435        C436   1.262       .  A
C436        C673   1.463       .  S
Cr437       O440   1.775       .  S
Cr438       O440   1.777       .  S
Cr439       O440   1.757       .  S
O441       Cr459   1.996       .  S
O441        C449   1.263       .  A
O442       Cr459   2.005       .  S
O442        C443   1.266       .  A
C443        O444   1.266       .  A
C443        C871   1.472       .  S
O444       Cr460   1.993       .  S
O445       Cr460   2.025       .  S
O445        C446   1.269       .  A
C446        O447   1.259       .  A
C446        C595   1.485       .  S
O447       Cr461   1.984       .  S
O448       Cr461   1.989       .  S
O448        C449   1.262       .  A
C449        C639   1.468       .  S
O450       Cr459   2.015       .  S
O450        C458   1.264       .  A
O451       Cr459   1.986       .  S
O451        C452   1.263       .  A
C452        O453   1.268       .  A
C452       C1883   1.491       .  S
O453       Cr460   2.022       .  S
O454       Cr460   1.994       .  S
O454        C455   1.264       .  A
C455        O456   1.263       .  A
C455        C629   1.468       .  S
O456       Cr461   1.988       .  S
O457       Cr461   1.968       .  S
O457        C458   1.257       .  A
C458        C771   1.474       .  S
Cr459       O462   1.775       .  S
Cr460       O462   1.776       .  S
Cr461       O462   1.764       .  S
O463       Cr481   1.987       .  S
O463        C471   1.261       .  A
O464       Cr481   1.998       .  S
O464        C465   1.266       .  A
C465        O466   1.265       .  A
C465        C915   1.471       .  S
O466       Cr482   1.996       .  S
O467       Cr482   2.028       .  S
O467        C468   1.270       .  A
C468        O469   1.260       .  A
C468        C551   1.487       .  S
O469       Cr483   1.978       .  S
O470       Cr483   1.990       .  S
O470        C471   1.262       .  A
C471        C573   1.461       .  S
O472       Cr481   2.014       .  S
O472        C480   1.265       .  A
O473       Cr481   1.974       .  S
O473        C474   1.261       .  A
C474        O475   1.269       .  A
C474       C1795   1.483       .  S
O475       Cr482   2.017       .  S
O476       Cr482   1.989       .  S
O476        C477   1.261       .  A
C477        O478   1.262       .  A
C477        C761   1.467       .  S
O478       Cr483   1.987       .  S
O479       Cr483   1.970       .  S
O479        C480   1.258       .  A
C480        C617   1.481       .  S
Cr481       O484   1.769       .  S
Cr482       O484   1.774       .  S
Cr483       O484   1.760       .  S
O485       Cr503   1.984       .  S
O485        C493   1.260       .  A
O486       Cr503   2.006       .  S
O486        C487   1.267       .  A
C487        O488   1.261       .  A
C487        C827   1.468       .  S
O488       Cr504   1.988       .  S
O489       Cr504   2.037       .  S
O489        C490   1.272       .  A
C490        O491   1.260       .  A
C490        C607   1.488       .  S
O491       Cr505   1.972       .  S
O492       Cr505   1.993       .  S
O492        C493   1.262       .  A
C493        C585   1.462       .  S
O494       Cr503   2.022       .  S
O494        C502   1.267       .  A
O495       Cr503   1.972       .  S
O495        C496   1.261       .  A
C496        O497   1.273       .  A
C496       C1641   1.492       .  S
O497       Cr504   2.035       .  S
O498       Cr504   1.985       .  S
O498        C499   1.260       .  A
C499        O500   1.262       .  A
C499        C661   1.463       .  S
O500       Cr505   1.985       .  S
O501       Cr505   1.969       .  S
O501        C502   1.257       .  A
C502        C529   1.478       .  S
Cr503       O506   1.771       .  S
Cr504       O506   1.775       .  S
Cr505       O506   1.760       .  S
O507       Cr525   1.988       .  S
O507        C515   1.259       .  A
O508       Cr525   2.007       .  S
O508        C509   1.266       .  A
C509        O510   1.265       .  A
C509       C1091   1.475       .  S
O510       Cr526   1.999       .  S
O511       Cr526   2.034       .  S
O511        C512   1.271       .  A
C512        O513   1.259       .  A
C512        C563   1.483       .  S
O513       Cr527   1.978       .  S
O514       Cr527   1.995       .  S
O514        C515   1.263       .  A
C515        C727   1.464       .  S
O516       Cr525   2.024       .  S
O516        C524   1.268       .  A
O517       Cr525   1.974       .  S
O517        C518   1.260       .  A
C518        O519   1.271       .  A
C518       C1585   1.485       .  S
O519       Cr526   2.024       .  S
O520       Cr526   1.991       .  S
O520        C521   1.262       .  A
C521        O522   1.262       .  A
C521        C541   1.464       .  S
O522       Cr527   1.998       .  S
O523       Cr527   1.973       .  S
O523        C524   1.260       .  A
C524        C695   1.483       .  S
Cr525       O528   1.775       .  S
Cr526       O528   1.772       .  S
Cr527       O528   1.762       .  S
C529        C530   1.400       .  A
C529        C534   1.401       .  A
C530        C531   1.395       .  A
C530        H543   1.084       .  S
C531        C532   1.414       .  A
C531        H544   1.077       .  S
C532        C538   1.429       .  A
C532        C533   1.423       .  A
C533        C535   1.400       .  A
C533        C534   1.408       .  A
C534        H545   1.084       .  S
C535        C536   1.392       .  A
C535        H546   1.084       .  S
C536        C537   1.400       .  A
C536        H547   1.084       .  S
C537        C538   1.423       .  A
C537        C542   1.407       .  A
C538        C539   1.415       .  A
C539        C540   1.395       .  A
C539        H548   1.077       .  S
C540        C541   1.396       .  A
C540        H549   1.084       .  S
C541        C542   1.399       .  A
C542        H550   1.085       .  S
C551        C552   1.402       .  A
C551        C556   1.404       .  A
C552        C553   1.400       .  A
C552        H565   1.083       .  S
C553        C554   1.414       .  A
C553        H566   1.078       .  S
C554        C560   1.435   1_556  A
C554        C555   1.423       .  A
C555        C557   1.400   1_556  A
C555        C556   1.411       .  A
C556        H567   1.085       .  S
C557        C558   1.393       .  A
C557        H568   1.084       .  S
C558        C559   1.401       .  A
C558        H569   1.084       .  S
C559        C560   1.423       .  A
C559        C564   1.410       .  A
C560        C561   1.417       .  A
C561        C562   1.401       .  A
C561        H570   1.078   1_554  S
C562        C563   1.400       .  A
C562        H571   1.083       .  S
C563        C564   1.404       .  A
C564        H572   1.085       .  S
C573        C574   1.396       .  A
C573        C578   1.396       .  A
C574        C575   1.399       .  A
C574        H587   1.084       .  S
C575        C576   1.417       .  A
C575        H588   1.077   1_556  S
C576        C582   1.430   1_556  A
C576        C577   1.423       .  A
C577        C579   1.398       .  A
C577        C578   1.400       .  A
C578        H589   1.086       .  S
C579        C580   1.387       .  A
C579        H590   1.084       .  S
C580        C581   1.398   1_556  A
C580        H591   1.084       .  S
C581        C582   1.423       .  A
C581        C586   1.401       .  A
C582        C583   1.417       .  A
C583        C584   1.399       .  A
C583        H592   1.077       .  S
C584        C585   1.396       .  A
C584        H593   1.084       .  S
C585        C586   1.396       .  A
C586        H594   1.085       .  S
C595        C596   1.402       .  A
C595        C600   1.404       .  A
C596        C597   1.397       .  A
C596        H609   1.084       .  S
C597        C598   1.413       .  A
C597        H610   1.078       .  S
C598        C604   1.434   1_556  A
C598        C599   1.423       .  A
C599        C601   1.401   1_556  A
C599        C600   1.414       .  A
C600        H611   1.084       .  S
C601        C602   1.395       .  A
C601        H612   1.084       .  S
C602        C603   1.402       .  A
C602        H613   1.084       .  S
C603        C604   1.422       .  A
C603        C608   1.412       .  A
C604        C605   1.415       .  A
C605        C606   1.398       .  A
C605        H614   1.078   1_554  S
C606        C607   1.402       .  A
C606        H615   1.084       .  S
C607        C608   1.406       .  A
C608        H616   1.084       .  S
C617        C618   1.402       .  A
C617        C622   1.401       .  A
C618        C619   1.400       .  A
C618        H631   1.083       .  S
C619        C620   1.415       .  A
C619        H632   1.078       .  S
C620        C626   1.430       .  A
C620        C621   1.423       .  A
C621        C623   1.398       .  A
C621        C622   1.400       .  A
C622        H633   1.084       .  S
C623        C624   1.386       .  A
C623        H634   1.084       .  S
C624        C625   1.398       .  A
C624        H635   1.084       .  S
C625        C626   1.421       .  A
C625        C630   1.397       .  A
C626        C627   1.419       .  A
C627        C628   1.403       .  A
C627        H636   1.078       .  S
C628        C629   1.397       .  A
C628        H637   1.083       .  S
C629        C630   1.397       .  A
C630        H638   1.085       .  S
C639        C640   1.397       .  A
C639        C644   1.400       .  A
C640        C641   1.397       .  A
C640        H653   1.084       .  S
C641        C642   1.415       .  A
C641        H654   1.077       .  S
C642        C648   1.431   1_556  A
C642        C643   1.422       .  A
C643        C645   1.400   1_556  A
C643        C644   1.408       .  A
C644        H655   1.085       .  S
C645        C646   1.392       .  A
C645        H656   1.084       .  S
C646        C647   1.401       .  A
C646        H657   1.084       .  S
C647        C648   1.423       .  A
C647        C652   1.409       .  A
C648        C649   1.414       .  A
C649        C650   1.395       .  A
C649        H658   1.077   1_554  S
C650        C651   1.400       .  A
C650        H659   1.084       .  S
C651        C652   1.403       .  A
C652        H660   1.084       .  S
C661        C662   1.396       .  A
C661        C666   1.396       .  A
C662        C663   1.400       .  A
C662        H675   1.083       .  S
C663        C664   1.418       .  A
C663        H676   1.077       .  S
C664        C670   1.428       .  A
C664        C665   1.423       .  A
C665        C667   1.397       .  A
C665        C666   1.396       .  A
C666        H677   1.086       .  S
C667        C668   1.384       .  A
C667        H678   1.084       .  S
C668        C669   1.397       .  A
C668        H679   1.084       .  S
C669        C670   1.423       .  A
C669        C674   1.396       .  A
C670        C671   1.418       .  A
C671        C672   1.401       .  A
C671        H680   1.078       .  S
C672        C673   1.397       .  A
C672        H681   1.083       .  S
C673        C674   1.394       .  A
C674        H682   1.085       .  S
C683        C684   1.402       .  A
C683        C688   1.404       .  A
C684        C685   1.392       .  A
C684        H697   1.083       .  S
C685        C686   1.412       .  A
C685        H698   1.077       .  S
C686        C692   1.431       .  A
C686        C687   1.424       .  A
C687        C689   1.401       .  A
C687        C688   1.414       .  A
C688        H699   1.084       .  S
C689        C690   1.395       .  A
C689        H700   1.084       .  S
C690        C691   1.402       .  A
C690        H701   1.084       .  S
C691        C692   1.422       .  A
C691        C696   1.411       .  A
C692        C693   1.415       .  A
C693        C694   1.394       .  A
C693        H702   1.077       .  S
C694        C695   1.400       .  A
C694        H703   1.084       .  S
C695        C696   1.405       .  A
C696        H704   1.084       .  S
C705        C706   1.399       .  A
C705        C710   1.395       .  A
C706        C707   1.404       .  A
C706        H719   1.083       .  S
C707        C708   1.418       .  A
C707        H720   1.078       .  S
C708        C714   1.435   1_554  A
C708        C709   1.424       .  A
C709        C711   1.397   1_554  A
C709        C710   1.401       .  A
C710        H721   1.086       .  S
C711        C712   1.385       .  A
C711        H722   1.084       .  S
C712        C713   1.398       .  A
C712        H723   1.084       .  S
C713        C714   1.422       .  A
C713        C718   1.399       .  A
C714        C715   1.420       .  A
C715        C716   1.406       .  A
C715        H724   1.078   1_556  S
C716        C717   1.399       .  A
C716        H725   1.083       .  S
C717        C718   1.398       .  A
C718        H726   1.086       .  S
C727        C728   1.395       .  A
C727        C732   1.400       .  A
C728        C729   1.390       .  A
C728        H741   1.084       .  S
C729        C730   1.413       .  A
C729        H742   1.077       .  S
C730        C736   1.427       .  A
C730        C731   1.423       .  A
C731        C733   1.401       .  A
C731        C732   1.410       .  A
C732        H743   1.085       .  S
C733        C734   1.394   1_554  A
C733        H744   1.084       .  S
C734        C735   1.401       .  A
C734        H745   1.084       .  S
C735        C736   1.422   1_556  A
C735        C740   1.410       .  A
C736        C737   1.412       .  A
C737        C738   1.391   1_554  A
C737        H746   1.077       .  S
C738        C739   1.401       .  A
C738        H747   1.084       .  S
C739        C740   1.404       .  A
C740        H748   1.084       .  S
C749        C750   1.398       .  A
C749        C754   1.396       .  A
C750        C751   1.402       .  A
C750        H763   1.083       .  S
C751        C752   1.418       .  A
C751        H764   1.078       .  S
C752        C758   1.430       .  A
C752        C753   1.423       .  A
C753        C755   1.397       .  A
C753        C754   1.395       .  A
C754        H765   1.086       .  S
C755        C756   1.383       .  A
C755        H766   1.084       .  S
C756        C757   1.397       .  A
C756        H767   1.084       .  S
C757        C758   1.422       .  A
C757        C762   1.394       .  A
C758        C759   1.419       .  A
C759        C760   1.403       .  A
C759        H768   1.078       .  S
C760        C761   1.398       .  A
C760        H769   1.083       .  S
C761        C762   1.396       .  A
C762        H770   1.085       .  S
C771        C772   1.398       .  A
C771        C776   1.402       .  A
C772        C773   1.391       .  A
C772        H785   1.083       .  S
C773        C774   1.414       .  A
C773        H786   1.076       .  S
C774        C780   1.428       .  A
C774        C775   1.423       .  A
C775        C777   1.401       .  A
C775        C776   1.409       .  A
C776        H787   1.085       .  S
C777        C778   1.393       .  A
C777        H788   1.084       .  S
C778        C779   1.400       .  A
C778        H789   1.084       .  S
C779        C780   1.423       .  A
C779        C784   1.409       .  A
C780        C781   1.413       .  A
C781        C782   1.391       .  A
C781        H790   1.076       .  S
C782        C783   1.400       .  A
C782        H791   1.084       .  S
C783        C784   1.402       .  A
C784        H792   1.084       .  S
C793        C794   1.398       .  A
C793        C798   1.396       .  A
C794        C795   1.400       .  A
C794        H807   1.083       .  S
C795        C796   1.417       .  A
C795        H808   1.078       .  S
C796        C802   1.433   1_655  A
C796        C797   1.425       .  A
C797        C799   1.398       .  A
C797        C798   1.404       .  A
C798        H809   1.085       .  S
C799        C800   1.388   1_655  A
C799        H810   1.084       .  S
C800        C801   1.399       .  A
C800        H811   1.084       .  S
C801        C802   1.421       .  A
C801        C806   1.402       .  A
C802        C803   1.419       .  A
C803        C804   1.403       .  A
C803        H812   1.078       .  S
C804        C805   1.399       .  A
C804        H813   1.083       .  S
C805        C806   1.401       .  A
C806        H814   1.085       .  S
C815        C816   1.396       .  A
C815        C820   1.400       .  A
C816        C817   1.393       .  A
C816        H829   1.084       .  S
C817        C818   1.414       .  A
C817        H830   1.077       .  S
C818        C824   1.429   1_545  A
C818        C819   1.423       .  A
C819        C821   1.400       .  A
C819        C820   1.408       .  A
C820        H831   1.085       .  S
C821        C822   1.393   1_545  A
C821        H832   1.084       .  S
C822        C823   1.401       .  A
C822        H833   1.084       .  S
C823        C824   1.424       .  A
C823        C828   1.409       .  A
C824        C825   1.415       .  A
C825        C826   1.393       .  A
C825        H834   1.077       .  S
C826        C827   1.395       .  A
C826        H835   1.084       .  S
C827        C828   1.400       .  A
C828        H836   1.085       .  S
C837        C838   1.401       .  A
C837        C842   1.400       .  A
C838        C839   1.399       .  A
C838        H851   1.083       .  S
C839        C840   1.415       .  A
C839        H852   1.077       .  S
C840        C846   1.430       .  A
C840        C841   1.423       .  A
C841        C843   1.398       .  A
C841        C842   1.401       .  A
C842        H853   1.084       .  S
C843        C844   1.387       .  A
C843        H854   1.084       .  S
C844        C845   1.398       .  A
C844        H855   1.084       .  S
C845        C846   1.423       .  A
C845        C850   1.399       .  A
C846        C847   1.418       .  A
C847        C848   1.400       .  A
C847        H856   1.077       .  S
C848        C849   1.396       .  A
C848        H857   1.083       .  S
C849        C850   1.396       .  A
C850        H858   1.085       .  S
C859        C860   1.399       .  A
C859        C864   1.398       .  A
C860        C861   1.401       .  A
C860        H873   1.084       .  S
C861        C862   1.417       .  A
C861        H874   1.078       .  S
C862        C868   1.432   1_655  A
C862        C863   1.422       .  A
C863        C865   1.399       .  A
C863        C864   1.404       .  A
C864        H875   1.085       .  S
C865        C866   1.389   1_655  A
C865        H876   1.084       .  S
C866        C867   1.399       .  A
C866        H877   1.084       .  S
C867        C868   1.425       .  A
C867        C872   1.406       .  A
C868        C869   1.415       .  A
C869        C870   1.398       .  A
C869        H878   1.078       .  S
C870        C871   1.400       .  A
C870        H879   1.084       .  S
C871        C872   1.397       .  A
C872        H880   1.085       .  S
C881        C882   1.401       .  A
C881        C886   1.401       .  A
C882        C883   1.404       .  A
C882        H895   1.083       .  S
C883        C884   1.418       .  A
C883        H896   1.078       .  S
C884        C890   1.432   1_556  A
C884        C885   1.422       .  A
C885        C887   1.398   1_556  A
C885        C886   1.398       .  A
C886        H897   1.085       .  S
C887        C888   1.385       .  A
C887        H898   1.084       .  S
C888        C889   1.398       .  A
C888        H899   1.084       .  S
C889        C890   1.424       .  A
C889        C894   1.400       .  A
C890        C891   1.418       .  A
C891        C892   1.402       .  A
C891        H900   1.078       .  S
C892        C893   1.397       .  A
C892        H901   1.083       .  S
C893        C894   1.396       .  A
C894        H902   1.086       .  S
C903        C904   1.397       .  A
C903        C908   1.400       .  A
C904        C905   1.391       .  A
C904        H917   1.084       .  S
C905        C906   1.414       .  A
C905        H918   1.077       .  S
C906        C912   1.427   1_545  A
C906        C907   1.424       .  A
C907        C909   1.401       .  A
C907        C908   1.410       .  A
C908        H919   1.084       .  S
C909        C910   1.394   1_545  A
C909        H920   1.084       .  S
C910        C911   1.400       .  A
C910        H921   1.084       .  S
C911        C912   1.423       .  A
C911        C916   1.410       .  A
C912        C913   1.413       .  A
C913        C914   1.391       .  A
C913        H922   1.077       .  S
C914        C915   1.398       .  A
C914        H923   1.084       .  S
C915        C916   1.400       .  A
C916        H924   1.084       .  S
C925        C926   1.397       .  A
C925        C930   1.395       .  A
C926        C927   1.399       .  A
C926        H939   1.084       .  S
C927        C928   1.416       .  A
C927        H940   1.078       .  S
C928        C934   1.430   1_556  A
C928        C929   1.424       .  A
C929        C931   1.398   1_556  A
C929        C930   1.402       .  A
C930        H941   1.085       .  S
C931        C932   1.387       .  A
C931        H942   1.084       .  S
C932        C933   1.398       .  A
C932        H943   1.084       .  S
C933        C934   1.423       .  A
C933        C938   1.401       .  A
C934        C935   1.418       .  A
C935        C936   1.400       .  A
C935        H944   1.077   1_554  S
C936        C937   1.396       .  A
C936        H945   1.084       .  S
C937        C938   1.396       .  A
C938        H946   1.085       .  S
C947        C948   1.400       .  A
C947        C952   1.401       .  A
C948        C949   1.399       .  A
C948        H961   1.084       .  S
C949        C950   1.416       .  A
C949        H962   1.077   1_556  S
C950        C956   1.433   1_556  A
C950        C951   1.423       .  A
C951        C953   1.400       .  A
C951        C952   1.407       .  A
C952        H963   1.085       .  S
C953        C954   1.391       .  A
C953        H964   1.084       .  S
C954        C955   1.399   1_556  A
C954        H965   1.084       .  S
C955        C956   1.423       .  A
C955        C960   1.407       .  A
C956        C957   1.415       .  A
C957        C958   1.399       .  A
C957        H966   1.078       .  S
C958        C959   1.401       .  A
C958        H967   1.084       .  S
C959        C960   1.401       .  A
C960        H968   1.085       .  S
C969        C970   1.398       .  A
C969        C974   1.392       .  A
C970        C971   1.403       .  A
C970        H983   1.083       .  S
C971        C972   1.418       .  A
C971        H984   1.078       .  S
C972        C978   1.429       .  A
C972        C973   1.422       .  A
C973        C975   1.396       .  A
C973        C974   1.394       .  A
C974        H985   1.083       .  S
C975        C976   1.382       .  A
C975        H986   1.082       .  S
C976        C977   1.396       .  A
C976        H987   1.084       .  S
C977        C978   1.423       .  A
C977        C982   1.394       .  A
C978        C979   1.418       .  A
C979        C980   1.402       .  A
C979        H988   1.078       .  S
C980        C981   1.398       .  A
C980        H989   1.083       .  S
C981        C982   1.392       .  A
C982        H990   1.085       .  S
C991        C992   1.400       .  A
C991        C996   1.399       .  A
C992        C993   1.397       .  A
C992       H1005   1.084       .  S
C993        C994   1.415       .  A
C993       H1006   1.078       .  S
C994       C1000   1.432       .  A
C994        C995   1.424       .  A
C995        C997   1.399       .  A
C995        C996   1.408       .  A
C996       H1007   1.085       .  S
C997        C998   1.391       .  A
C997       H1008   1.084       .  S
C998        C999   1.400       .  A
C998       H1009   1.084       .  S
C999       C1000   1.423       .  A
C999       C1004   1.407       .  A
C1000      C1001   1.416       .  A
C1001      C1002   1.399       .  A
C1001      H1010   1.078       .  S
C1002      C1003   1.398       .  A
C1002      H1011   1.084       .  S
C1003      C1004   1.399       .  A
C1004      H1012   1.085       .  S
C1013      C1014   1.400       .  A
C1013      C1018   1.400       .  A
C1014      C1015   1.395       .  A
C1014      H1027   1.084       .  S
C1015      C1016   1.414       .  A
C1015      H1028   1.078       .  S
C1016      C1022   1.427   1_556  A
C1016      C1017   1.422       .  A
C1017      C1019   1.399   1_556  A
C1017      C1018   1.403       .  A
C1018      H1029   1.085       .  S
C1019      C1020   1.389       .  A
C1019      H1030   1.084       .  S
C1020      C1021   1.400       .  A
C1020      H1031   1.084       .  S
C1021      C1022   1.422       .  A
C1021      C1026   1.402       .  A
C1022      C1023   1.415       .  A
C1023      C1024   1.396       .  A
C1023      H1032   1.078   1_554  S
C1024      C1025   1.398       .  A
C1024      H1033   1.084       .  S
C1025      C1026   1.400       .  A
C1026      H1034   1.085       .  S
C1035      C1036   1.400       .  A
C1035      C1040   1.403       .  A
C1036      C1037   1.403       .  A
C1036      H1049   1.083       .  S
C1037      C1038   1.418       .  A
C1037      H1050   1.077       .  S
C1038      C1044   1.432       .  A
C1038      C1039   1.420       .  A
C1039      C1041   1.399       .  A
C1039      C1040   1.399       .  A
C1040      H1051   1.083       .  S
C1041      C1042   1.385       .  A
C1041      H1052   1.082       .  S
C1042      C1043   1.397       .  A
C1042      H1053   1.084       .  S
C1043      C1044   1.424       .  A
C1043      C1048   1.401       .  A
C1044      C1045   1.415       .  A
C1045      C1046   1.399       .  A
C1045      H1054   1.077       .  S
C1046      C1047   1.402       .  A
C1046      H1055   1.083       .  S
C1047      C1048   1.399       .  A
C1048      H1056   1.084       .  S
C1057      C1058   1.397       .  A
C1057      C1062   1.399       .  A
C1058      C1059   1.396       .  A
C1058      H1071   1.083       .  S
C1059      C1060   1.414       .  A
C1059      H1072   1.078       .  S
C1060      C1066   1.431       .  A
C1060      C1061   1.424       .  A
C1061      C1063   1.400       .  A
C1061      C1062   1.409       .  A
C1062      H1073   1.085       .  S
C1063      C1064   1.392       .  A
C1063      H1074   1.084       .  S
C1064      C1065   1.401       .  A
C1064      H1075   1.084       .  S
C1065      C1066   1.422       .  A
C1065      C1070   1.407       .  A
C1066      C1067   1.415       .  A
C1067      C1068   1.397       .  A
C1067      H1076   1.078       .  S
C1068      C1069   1.401       .  A
C1068      H1077   1.083       .  S
C1069      C1070   1.403       .  A
C1070      H1078   1.084       .  S
C1079      C1080   1.399       .  A
C1079      C1084   1.400       .  A
C1080      C1081   1.399       .  A
C1080      H1093   1.084       .  S
C1081      C1082   1.415       .  A
C1081      H1094   1.078       .  S
C1082      C1088   1.433       .  A
C1082      C1083   1.424       .  A
C1083      C1085   1.400       .  A
C1083      C1084   1.409       .  A
C1084      H1095   1.085       .  S
C1085      C1086   1.391       .  A
C1085      H1096   1.084       .  S
C1086      C1087   1.400       .  A
C1086      H1097   1.084       .  S
C1087      C1088   1.422       .  A
C1087      C1092   1.407       .  A
C1088      C1089   1.417       .  A
C1089      C1090   1.401       .  A
C1089      H1098   1.078       .  S
C1090      C1091   1.398       .  A
C1090      H1099   1.083       .  S
C1091      C1092   1.401       .  A
C1092      H1100   1.085       .  S
C1101      C1102   1.399       .  A
C1101      C1106   1.401       .  A
C1102      C1103   1.406       .  A
C1102      H1115   1.083       .  S
C1103      C1104   1.420       .  A
C1103      H1116   1.078   1_554  S
C1104      C1110   1.438   1_554  A
C1104      C1105   1.423       .  A
C1105      C1107   1.400       .  A
C1105      C1106   1.406       .  A
C1106      H1117   1.085       .  S
C1107      C1108   1.390       .  A
C1107      H1118   1.084       .  S
C1108      C1109   1.399   1_554  A
C1108      H1119   1.084       .  S
C1109      C1110   1.425       .  A
C1109      C1114   1.408       .  A
C1110      C1111   1.417       .  A
C1111      C1112   1.404       .  A
C1111      H1120   1.078       .  S
C1112      C1113   1.400       .  A
C1112      H1121   1.083       .  S
C1113      C1114   1.399       .  A
C1114      H1122   1.085       .  S
C1123      C1124   1.399       .  A
C1123      C1128   1.402       .  A
C1124      C1125   1.395       .  A
C1124      H1137   1.084       .  S
C1125      C1126   1.415       .  A
C1125      H1138   1.077   1_554  S
C1126      C1132   1.429   1_554  A
C1126      C1127   1.422       .  A
C1127      C1129   1.401       .  A
C1127      C1128   1.406       .  A
C1128      H1139   1.085       .  S
C1129      C1130   1.391       .  A
C1129      H1140   1.084       .  S
C1130      C1131   1.399   1_554  A
C1130      H1141   1.084       .  S
C1131      C1132   1.423       .  A
C1131      C1136   1.407       .  A
C1132      C1133   1.414       .  A
C1133      C1134   1.394       .  A
C1133      H1142   1.077       .  S
C1134      C1135   1.396       .  A
C1134      H1143   1.084       .  S
C1135      C1136   1.398       .  A
C1136      H1144   1.085       .  S
C1145      C1146   1.398       .  A
C1145      C1150   1.397       .  A
C1146      C1147   1.403       .  A
C1146      H1159   1.083       .  S
C1147      C1148   1.419       .  A
C1147      H1160   1.078       .  S
C1148      C1154   1.432       .  A
C1148      C1149   1.423       .  A
C1149      C1151   1.398       .  A
C1149      C1150   1.398       .  A
C1150      H1161   1.086       .  S
C1151      C1152   1.385       .  A
C1151      H1162   1.084       .  S
C1152      C1153   1.398       .  A
C1152      H1163   1.084       .  S
C1153      C1154   1.423       .  A
C1153      C1158   1.398       .  A
C1154      C1155   1.418       .  A
C1155      C1156   1.403       .  A
C1155      H1164   1.078       .  S
C1156      C1157   1.398       .  A
C1156      H1165   1.083       .  S
C1157      C1158   1.398       .  A
C1158      H1166   1.085       .  S
C1167      C1168   1.398       .  A
C1167      C1172   1.400       .  A
C1168      C1169   1.393       .  A
C1168      H1181   1.083       .  S
C1169      C1170   1.415       .  A
C1169      H1182   1.076       .  S
C1170      C1176   1.428       .  A
C1170      C1171   1.423       .  A
C1171      C1173   1.400       .  A
C1171      C1172   1.405       .  A
C1172      H1183   1.085       .  S
C1173      C1174   1.391       .  A
C1173      H1184   1.084       .  S
C1174      C1175   1.399       .  A
C1174      H1185   1.084       .  S
C1175      C1176   1.424       .  A
C1175      C1180   1.406       .  A
C1176      C1177   1.414       .  A
C1177      C1178   1.392       .  A
C1177      H1186   1.076       .  S
C1178      C1179   1.399       .  A
C1178      H1187   1.084       .  S
C1179      C1180   1.399       .  A
C1180      H1188   1.085       .  S
C1189      C1190   1.400       .  A
C1189      C1194   1.404       .  A
C1190      C1191   1.396       .  A
C1190      H1203   1.083       .  S
C1191      C1192   1.416       .  A
C1191      H1204   1.077       .  S
C1192      C1198   1.430       .  A
C1192      C1193   1.421       .  A
C1193      C1195   1.400       .  A
C1193      C1194   1.405       .  A
C1194      H1205   1.084       .  S
C1195      C1196   1.391       .  A
C1195      H1206   1.084       .  S
C1196      C1197   1.399       .  A
C1196      H1207   1.084       .  S
C1197      C1198   1.424       .  A
C1197      C1202   1.408       .  A
C1198      C1199   1.412       .  A
C1199      C1200   1.393       .  A
C1199      H1208   1.077       .  S
C1200      C1201   1.402       .  A
C1200      H1209   1.083       .  S
C1201      C1202   1.402       .  A
C1202      H1210   1.084       .  S
C1211      C1212   1.402       .  A
C1211      C1216   1.403       .  A
C1212      C1213   1.396       .  A
C1212      H1225   1.083       .  S
C1213      C1214   1.414       .  A
C1213      H1226   1.077       .  S
C1214      C1220   1.432       .  A
C1214      C1215   1.423       .  A
C1215      C1217   1.399       .  A
C1215      C1216   1.408       .  A
C1216      H1227   1.084       .  S
C1217      C1218   1.391       .  A
C1217      H1228   1.084       .  S
C1218      C1219   1.400       .  A
C1218      H1229   1.084       .  S
C1219      C1220   1.421       .  A
C1219      C1224   1.406       .  A
C1220      C1221   1.416       .  A
C1221      C1222   1.399       .  A
C1221      H1230   1.077       .  S
C1222      C1223   1.401       .  A
C1222      H1231   1.083       .  S
C1223      C1224   1.405       .  A
C1224      H1232   1.084       .  S
C1233      C1234   1.399       .  A
C1233      C1238   1.402       .  A
C1234      C1235   1.398       .  A
C1234      H1247   1.083       .  S
C1235      C1236   1.416       .  A
C1235      H1248   1.078       .  S
C1236      C1242   1.428       .  A
C1236      C1237   1.422       .  A
C1237      C1239   1.401       .  A
C1237      C1238   1.404       .  A
C1238      H1249   1.085       .  S
C1239      C1240   1.391       .  A
C1239      H1250   1.084       .  S
C1240      C1241   1.399       .  A
C1240      H1251   1.084       .  S
C1241      C1242   1.422       .  A
C1241      C1246   1.406       .  A
C1242      C1243   1.413       .  A
C1243      C1244   1.396       .  A
C1243      H1252   1.078       .  S
C1244      C1245   1.401       .  A
C1244      H1253   1.084       .  S
C1245      C1246   1.400       .  A
C1246      H1254   1.085       .  S
C1255      C1256   1.403       .  A
C1255      C1260   1.405       .  A
C1256      C1257   1.401       .  A
C1256      H1269   1.083       .  S
C1257      C1258   1.416       .  A
C1257      H1270   1.077       .  S
C1258      C1264   1.435       .  A
C1258      C1259   1.422       .  A
C1259      C1261   1.400       .  A
C1259      C1260   1.409       .  A
C1260      H1271   1.084       .  S
C1261      C1262   1.391       .  A
C1261      H1272   1.084       .  S
C1262      C1263   1.400       .  A
C1262      H1273   1.084       .  S
C1263      C1264   1.424       .  A
C1263      C1268   1.410       .  A
C1264      C1265   1.414       .  A
C1265      C1266   1.399       .  A
C1265      H1274   1.077       .  S
C1266      C1267   1.404       .  A
C1266      H1275   1.083       .  S
C1267      C1268   1.403       .  A
C1268      H1276   1.084       .  S
C1277      C1278   1.397       .  A
C1277      C1282   1.399       .  A
C1278      C1279   1.397       .  A
C1278      H1291   1.084       .  S
C1279      C1280   1.415       .  A
C1279      H1292   1.078       .  S
C1280      C1286   1.431       .  A
C1280      C1281   1.423       .  A
C1281      C1283   1.399       .  A
C1281      C1282   1.406       .  A
C1282      H1293   1.085       .  S
C1283      C1284   1.391       .  A
C1283      H1294   1.084       .  S
C1284      C1285   1.400       .  A
C1284      H1295   1.084       .  S
C1285      C1286   1.423       .  A
C1285      C1290   1.406       .  A
C1286      C1287   1.416       .  A
C1287      C1288   1.397       .  A
C1287      H1296   1.077       .  S
C1288      C1289   1.399       .  A
C1288      H1297   1.084       .  S
C1289      C1290   1.401       .  A
C1290      H1298   1.085       .  S
C1299      C1300   1.399       .  A
C1299      C1304   1.396       .  A
C1300      C1301   1.404       .  A
C1300      H1313   1.083       .  S
C1301      C1302   1.419       .  A
C1301      H1314   1.078       .  S
C1302      C1308   1.431       .  A
C1302      C1303   1.423       .  A
C1303      C1305   1.396       .  A
C1303      C1304   1.394       .  A
C1304      H1315   1.086       .  S
C1305      C1306   1.382       .  A
C1305      H1316   1.084       .  S
C1306      C1307   1.397       .  A
C1306      H1317   1.084       .  S
C1307      C1308   1.422       .  A
C1307      C1312   1.393       .  A
C1308      C1309   1.420       .  A
C1309      C1310   1.406       .  A
C1309      H1318   1.078       .  S
C1310      C1311   1.399       .  A
C1310      H1319   1.083       .  S
C1311      C1312   1.396       .  A
C1312      H1320   1.086       .  S
C1321      C1322   1.401       .  A
C1321      C1326   1.403       .  A
C1322      C1323   1.391       .  A
C1322      H1335   1.083       .  S
C1323      C1324   1.412       .  A
C1323      H1336   1.080       .  S
C1324      C1330   1.427       .  A
C1324      C1325   1.423       .  A
C1325      C1327   1.400       .  A
C1325      C1326   1.407       .  A
C1326      H1337   1.085       .  S
C1327      C1328   1.391       .  A
C1327      H1338   1.084       .  S
C1328      C1329   1.400       .  A
C1328      H1339   1.084       .  S
C1329      C1330   1.422       .  A
C1329      C1334   1.405       .  A
C1330      C1331   1.413       .  A
C1331      C1332   1.391       .  A
C1331      H1340   1.080       .  S
C1332      C1333   1.400       .  A
C1332      H1341   1.083       .  S
C1333      C1334   1.403       .  A
C1334      H1342   1.085       .  S
C1343      C1344   1.397       .  A
C1343      C1348   1.396       .  A
C1344      C1345   1.403       .  A
C1344      H1357   1.083       .  S
C1345      C1346   1.419       .  A
C1345      H1358   1.078       .  S
C1346      C1352   1.432       .  A
C1346      C1347   1.423       .  A
C1347      C1349   1.398       .  A
C1347      C1348   1.398       .  A
C1348      H1359   1.086       .  S
C1349      C1350   1.385       .  A
C1349      H1360   1.084       .  S
C1350      C1351   1.398       .  A
C1350      H1361   1.084       .  S
C1351      C1352   1.423       .  A
C1351      C1356   1.398       .  A
C1352      C1353   1.419       .  A
C1353      C1354   1.403       .  A
C1353      H1362   1.078       .  S
C1354      C1355   1.398       .  A
C1354      H1363   1.083       .  S
C1355      C1356   1.397       .  A
C1356      H1364   1.086       .  S
C1365      C1366   1.403       .  A
C1365      C1370   1.400       .  A
C1366      C1367   1.399       .  A
C1366      H1379   1.083       .  S
C1367      C1368   1.414       .  A
C1367      H1380   1.077       .  S
C1368      C1374   1.432       .  A
C1368      C1369   1.424       .  A
C1369      C1371   1.398       .  A
C1369      C1370   1.403       .  A
C1370      H1381   1.084       .  S
C1371      C1372   1.386       .  A
C1371      H1382   1.083       .  S
C1372      C1373   1.398       .  A
C1372      H1383   1.085       .  S
C1373      C1374   1.421       .  A
C1373      C1378   1.398       .  A
C1374      C1375   1.420       .  A
C1375      C1376   1.404       .  A
C1375      H1384   1.078       .  S
C1376      C1377   1.398       .  A
C1376      H1385   1.083       .  S
C1377      C1378   1.398       .  A
C1378      H1386   1.085       .  S
C1387      C1388   1.401       .  A
C1387      C1392   1.404       .  A
C1388      C1389   1.395       .  A
C1388      H1401   1.083       .  S
C1389      C1390   1.414       .  A
C1389      H1402   1.077       .  S
C1390      C1396   1.430       .  A
C1390      C1391   1.422       .  A
C1391      C1393   1.400       .  A
C1391      C1392   1.408       .  A
C1392      H1403   1.084       .  S
C1393      C1394   1.392       .  A
C1393      H1404   1.084       .  S
C1394      C1395   1.400       .  A
C1394      H1405   1.084       .  S
C1395      C1396   1.422       .  A
C1395      C1400   1.408       .  A
C1396      C1397   1.414       .  A
C1397      C1398   1.394       .  A
C1397      H1406   1.077       .  S
C1398      C1399   1.401       .  A
C1398      H1407   1.083       .  S
C1399      C1400   1.404       .  A
C1400      H1408   1.084       .  S
C1409      C1410   1.402       .  A
C1409      C1414   1.402       .  A
C1410      C1411   1.401       .  A
C1410      H1423   1.083       .  S
C1411      C1412   1.416       .  A
C1411      H1424   1.078       .  S
C1412      C1418   1.433       .  A
C1412      C1413   1.422       .  A
C1413      C1415   1.399       .  A
C1413      C1414   1.406       .  A
C1414      H1425   1.085       .  S
C1415      C1416   1.390       .  A
C1415      H1426   1.084       .  S
C1416      C1417   1.400       .  A
C1416      H1427   1.084       .  S
C1417      C1418   1.423       .  A
C1417      C1422   1.406       .  A
C1418      C1419   1.417       .  A
C1419      C1420   1.401       .  A
C1419      H1428   1.078       .  S
C1420      C1421   1.399       .  A
C1420      H1429   1.083       .  S
C1421      C1422   1.401       .  A
C1422      H1430   1.085       .  S
C1431      C1432   1.402       .  A
C1431      C1436   1.401       .  A
C1432      C1433   1.401       .  A
C1432      H1445   1.083       .  S
C1433      C1434   1.416       .  A
C1433      H1446   1.078       .  S
C1434      C1440   1.433       .  A
C1434      C1435   1.423       .  A
C1435      C1437   1.398       .  A
C1435      C1436   1.402       .  A
C1436      H1447   1.084       .  S
C1437      C1438   1.387       .  A
C1437      H1448   1.084       .  S
C1438      C1439   1.399       .  A
C1438      H1449   1.084       .  S
C1439      C1440   1.422       .  A
C1439      C1444   1.402       .  A
C1440      C1441   1.417       .  A
C1441      C1442   1.402       .  A
C1441      H1450   1.078       .  S
C1442      C1443   1.401       .  A
C1442      H1451   1.083       .  S
C1443      C1444   1.402       .  A
C1444      H1452   1.085       .  S
C1453      C1454   1.397       .  A
C1453      C1458   1.396       .  A
C1454      C1455   1.396       .  A
C1454      H1467   1.083       .  S
C1455      C1456   1.414       .  A
C1455      H1468   1.078       .  S
C1456      C1462   1.430       .  A
C1456      C1457   1.424       .  A
C1457      C1459   1.398       .  A
C1457      C1458   1.406       .  A
C1458      H1469   1.085       .  S
C1459      C1460   1.389       .  A
C1459      H1470   1.084       .  S
C1460      C1461   1.400       .  A
C1460      H1471   1.084       .  S
C1461      C1462   1.421       .  A
C1461      C1466   1.403       .  A
C1462      C1463   1.417       .  A
C1463      C1464   1.399       .  A
C1463      H1472   1.078       .  S
C1464      C1465   1.400       .  A
C1464      H1473   1.083       .  S
C1465      C1466   1.403       .  A
C1466      H1474   1.085       .  S
C1475      C1476   1.404       .  A
C1475      C1480   1.404       .  A
C1476      C1477   1.402       .  A
C1476      H1489   1.083       .  S
C1477      C1478   1.416       .  A
C1477      H1490   1.078       .  S
C1478      C1484   1.436       .  A
C1478      C1479   1.423       .  A
C1479      C1481   1.400       .  A
C1479      C1480   1.408       .  A
C1480      H1491   1.084       .  S
C1481      C1482   1.390       .  A
C1481      H1492   1.084       .  S
C1482      C1483   1.400       .  A
C1482      H1493   1.084       .  S
C1483      C1484   1.423       .  A
C1483      C1488   1.408       .  A
C1484      C1485   1.416       .  A
C1485      C1486   1.402       .  A
C1485      H1494   1.078       .  S
C1486      C1487   1.403       .  A
C1486      H1495   1.083       .  S
C1487      C1488   1.405       .  A
C1488      H1496   1.084       .  S
C1497      C1498   1.399       .  A
C1497      C1502   1.400       .  A
C1498      C1499   1.404       .  A
C1498      H1511   1.083       .  S
C1499      C1500   1.419       .  A
C1499      H1512   1.078       .  S
C1500      C1506   1.437       .  A
C1500      C1501   1.423       .  A
C1501      C1503   1.400       .  A
C1501      C1502   1.406       .  A
C1502      H1513   1.085       .  S
C1503      C1504   1.390       .  A
C1503      H1514   1.084       .  S
C1504      C1505   1.399       .  A
C1504      H1515   1.084       .  S
C1505      C1506   1.424       .  A
C1505      C1510   1.407       .  A
C1506      C1507   1.417       .  A
C1507      C1508   1.403       .  A
C1507      H1516   1.078       .  S
C1508      C1509   1.399       .  A
C1508      H1517   1.083       .  S
C1509      C1510   1.400       .  A
C1510      H1518   1.085       .  S
C1519      C1520   1.397       .  A
C1519      C1524   1.397       .  A
C1520      C1521   1.401       .  A
C1520      H1533   1.084       .  S
C1521      C1522   1.418       .  A
C1521      H1534   1.078       .  S
C1522      C1528   1.432       .  A
C1522      C1523   1.423       .  A
C1523      C1525   1.398       .  A
C1523      C1524   1.401       .  A
C1524      H1535   1.086       .  S
C1525      C1526   1.387       .  A
C1525      H1536   1.084       .  S
C1526      C1527   1.398       .  A
C1526      H1537   1.084       .  S
C1527      C1528   1.423       .  A
C1527      C1532   1.403       .  A
C1528      C1529   1.416       .  A
C1529      C1530   1.400       .  A
C1529      H1538   1.078       .  S
C1530      C1531   1.401       .  A
C1530      H1539   1.083       .  S
C1531      C1532   1.399       .  A
C1532      H1540   1.085       .  S
C1541      C1542   1.398       .  A
C1541      C1546   1.396       .  A
C1542      C1543   1.401       .  A
C1542      H1555   1.084       .  S
C1543      C1544   1.418       .  A
C1543      H1556   1.078       .  S
C1544      C1550   1.431       .  A
C1544      C1545   1.424       .  A
C1545      C1547   1.398       .  A
C1545      C1546   1.400       .  A
C1546      H1557   1.085       .  S
C1547      C1548   1.386       .  A
C1547      H1558   1.084       .  S
C1548      C1549   1.398       .  A
C1548      H1559   1.084       .  S
C1549      C1550   1.423       .  A
C1549      C1554   1.399       .  A
C1550      C1551   1.418       .  A
C1551      C1552   1.402       .  A
C1551      H1560   1.078       .  S
C1552      C1553   1.397       .  A
C1552      H1561   1.083       .  S
C1553      C1554   1.396       .  A
C1554      H1562   1.086       .  S
C1563      C1564   1.401       .  A
C1563      C1568   1.401       .  A
C1564      C1565   1.400       .  A
C1564      H1577   1.083       .  S
C1565      C1566   1.417       .  A
C1565      H1578   1.078       .  S
C1566      C1572   1.431       .  A
C1566      C1567   1.422       .  A
C1567      C1569   1.399       .  A
C1567      C1568   1.401       .  A
C1568      H1579   1.085       .  S
C1569      C1570   1.387       .  A
C1569      H1580   1.084       .  S
C1570      C1571   1.398       .  A
C1570      H1581   1.084       .  S
C1571      C1572   1.423       .  A
C1571      C1576   1.401       .  A
C1572      C1573   1.416       .  A
C1573      C1574   1.399       .  A
C1573      H1582   1.079       .  S
C1574      C1575   1.400       .  A
C1574      H1583   1.083       .  S
C1575      C1576   1.398       .  A
C1576      H1584   1.085       .  S
C1585      C1586   1.399       .  A
C1585      C1590   1.405       .  A
C1586      C1587   1.399       .  A
C1586      H1599   1.083       .  S
C1587      C1588   1.417       .  A
C1587      H1600   1.077       .  S
C1588      C1594   1.433       .  A
C1588      C1589   1.422       .  A
C1589      C1591   1.401       .  A
C1589      C1590   1.409       .  A
C1590      H1601   1.084       .  S
C1591      C1592   1.393       .  A
C1591      H1602   1.084       .  S
C1592      C1593   1.400       .  A
C1592      H1603   1.084       .  S
C1593      C1594   1.424       .  A
C1593      C1598   1.412       .  A
C1594      C1595   1.413       .  A
C1595      C1596   1.396       .  A
C1595      H1604   1.077       .  S
C1596      C1597   1.402       .  A
C1596      H1605   1.083       .  S
C1597      C1598   1.404       .  A
C1598      H1606   1.084       .  S
C1607      C1608   1.399       .  A
C1607      C1612   1.401       .  A
C1608      C1609   1.395       .  A
C1608      H1621   1.084       .  S
C1609      C1610   1.414       .  A
C1609      H1622   1.077       .  S
C1610      C1616   1.431       .  A
C1610      C1611   1.424       .  A
C1611      C1613   1.400       .  A
C1611      C1612   1.410       .  A
C1612      H1623   1.085       .  S
C1613      C1614   1.393       .  A
C1613      H1624   1.084       .  S
C1614      C1615   1.400       .  A
C1614      H1625   1.084       .  S
C1615      C1616   1.424       .  A
C1615      C1620   1.410       .  A
C1616      C1617   1.415       .  A
C1617      C1618   1.395       .  A
C1617      H1626   1.077       .  S
C1618      C1619   1.399       .  A
C1618      H1627   1.084       .  S
C1619      C1620   1.401       .  A
C1620      H1628   1.085       .  S
C1629      C1630   1.402       .  A
C1629      C1634   1.406       .  A
C1630      C1631   1.399       .  A
C1630      H1643   1.083       .  S
C1631      C1632   1.416       .  A
C1631      H1644   1.077       .  S
C1632      C1638   1.435       .  A
C1632      C1633   1.422       .  A
C1633      C1635   1.401       .  A
C1633      C1634   1.411       .  A
C1634      H1645   1.084       .  S
C1635      C1636   1.394       .  A
C1635      H1646   1.084       .  S
C1636      C1637   1.401       .  A
C1636      H1647   1.084       .  S
C1637      C1638   1.424       .  A
C1637      C1642   1.413       .  A
C1638      C1639   1.413       .  A
C1639      C1640   1.397       .  A
C1639      H1648   1.077       .  S
C1640      C1641   1.404       .  A
C1640      H1649   1.083       .  S
C1641      C1642   1.405       .  A
C1642      H1650   1.084       .  S
C1651      C1652   1.398       .  A
C1651      C1656   1.396       .  A
C1652      C1653   1.402       .  A
C1652      H1665   1.083       .  S
C1653      C1654   1.418       .  A
C1653      H1666   1.078       .  S
C1654      C1660   1.433   1_565  A
C1654      C1655   1.424       .  A
C1655      C1657   1.398       .  A
C1655      C1656   1.401       .  A
C1656      H1667   1.085       .  S
C1657      C1658   1.386   1_565  A
C1657      H1668   1.084       .  S
C1658      C1659   1.398       .  A
C1658      H1669   1.084       .  S
C1659      C1660   1.423       .  A
C1659      C1664   1.400       .  A
C1660      C1661   1.418       .  A
C1661      C1662   1.403       .  A
C1661      H1670   1.078       .  S
C1662      C1663   1.398       .  A
C1662      H1671   1.083       .  S
C1663      C1664   1.397       .  A
C1664      H1672   1.085       .  S
C1673      C1674   1.401       .  A
C1673      C1678   1.400       .  A
C1674      C1675   1.400       .  A
C1674      H1687   1.083       .  S
C1675      C1676   1.416       .  A
C1675      H1688   1.078       .  S
C1676      C1682   1.431       .  A
C1676      C1677   1.423       .  A
C1677      C1679   1.398       .  A
C1677      C1678   1.401       .  A
C1678      H1689   1.085       .  S
C1679      C1680   1.386       .  A
C1679      H1690   1.084       .  S
C1680      C1681   1.398       .  A
C1680      H1691   1.084       .  S
C1681      C1682   1.422       .  A
C1681      C1686   1.399       .  A
C1682      C1683   1.417       .  A
C1683      C1684   1.400       .  A
C1683      H1692   1.077       .  S
C1684      C1685   1.400       .  A
C1684      H1693   1.083       .  S
C1685      C1686   1.401       .  A
C1686      H1694   1.085       .  S
C1695      C1696   1.397       .  A
C1695      C1700   1.402       .  A
C1696      C1697   1.396       .  A
C1696      H1709   1.084       .  S
C1697      C1698   1.417       .  A
C1697      H1710   1.077       .  S
C1698      C1704   1.430       .  A
C1698      C1699   1.421       .  A
C1699      C1701   1.400       .  A
C1699      C1700   1.406       .  A
C1700      H1711   1.085       .  S
C1701      C1702   1.392       .  A
C1701      H1712   1.084       .  S
C1702      C1703   1.400       .  A
C1702      H1713   1.084       .  S
C1703      C1704   1.424       .  A
C1703      C1708   1.410       .  A
C1704      C1705   1.412       .  A
C1705      C1706   1.393       .  A
C1705      H1714   1.077       .  S
C1706      C1707   1.402       .  A
C1706      H1715   1.083       .  S
C1707      C1708   1.403       .  A
C1708      H1716   1.084       .  S
C1717      C1718   1.399       .  A
C1717      C1722   1.400       .  A
C1718      C1719   1.405       .  A
C1718      H1731   1.083       .  S
C1719      C1720   1.418       .  A
C1719      H1732   1.078       .  S
C1720      C1726   1.435   1_455  A
C1720      C1721   1.423       .  A
C1721      C1723   1.399       .  A
C1721      C1722   1.403       .  A
C1722      H1733   1.085       .  S
C1723      C1724   1.387   1_455  A
C1723      H1734   1.084       .  S
C1724      C1725   1.398       .  A
C1724      H1735   1.084       .  S
C1725      C1726   1.423       .  A
C1725      C1730   1.402       .  A
C1726      C1727   1.419       .  A
C1727      C1728   1.405       .  A
C1727      H1736   1.078       .  S
C1728      C1729   1.399       .  A
C1728      H1737   1.083       .  S
C1729      C1730   1.399       .  A
C1730      H1738   1.085       .  S
C1739      C1740   1.400       .  A
C1739      C1744   1.400       .  A
C1740      C1741   1.396       .  A
C1740      H1753   1.084       .  S
C1741      C1742   1.416       .  A
C1741      H1754   1.077       .  S
C1742      C1748   1.429       .  A
C1742      C1743   1.423       .  A
C1743      C1745   1.399       .  A
C1743      C1744   1.404       .  A
C1744      H1755   1.085       .  S
C1745      C1746   1.389       .  A
C1745      H1756   1.084       .  S
C1746      C1747   1.399       .  A
C1746      H1757   1.084       .  S
C1747      C1748   1.424       .  A
C1747      C1752   1.405       .  A
C1748      C1749   1.415       .  A
C1749      C1750   1.396       .  A
C1749      H1758   1.078       .  S
C1750      C1751   1.396       .  A
C1750      H1759   1.084       .  S
C1751      C1752   1.396       .  A
C1752      H1760   1.085       .  S
C1761      C1762   1.401       .  A
C1761      C1766   1.398       .  A
C1762      C1763   1.409       .  A
C1762      H1775   1.083       .  S
C1763      C1764   1.420       .  A
C1763      H1776   1.078       .  S
C1764      C1770   1.437       .  A
C1764      C1765   1.423       .  A
C1765      C1767   1.398       .  A
C1765      C1766   1.400       .  A
C1766      H1777   1.086       .  S
C1767      C1768   1.385       .  A
C1767      H1778   1.084       .  S
C1768      C1769   1.397       .  A
C1768      H1779   1.084       .  S
C1769      C1770   1.423       .  A
C1769      C1774   1.399       .  A
C1770      C1771   1.420       .  A
C1771      C1772   1.408       .  A
C1771      H1780   1.078       .  S
C1772      C1773   1.401       .  A
C1772      H1781   1.083       .  S
C1773      C1774   1.397       .  A
C1774      H1782   1.085       .  S
C1783      C1784   1.402       .  A
C1783      C1788   1.402       .  A
C1784      C1785   1.397       .  A
C1784      H1797   1.083       .  S
C1785      C1786   1.415       .  A
C1785      H1798   1.077       .  S
C1786      C1792   1.431       .  A
C1786      C1787   1.423       .  A
C1787      C1789   1.399       .  A
C1787      C1788   1.406       .  A
C1788      H1799   1.084       .  S
C1789      C1790   1.390       .  A
C1789      H1800   1.084       .  S
C1790      C1791   1.400       .  A
C1790      H1801   1.084       .  S
C1791      C1792   1.422       .  A
C1791      C1796   1.405       .  A
C1792      C1793   1.415       .  A
C1793      C1794   1.397       .  A
C1793      H1802   1.077       .  S
C1794      C1795   1.401       .  A
C1794      H1803   1.083       .  S
C1795      C1796   1.403       .  A
C1796      H1804   1.084       .  S
C1805      C1806   1.399       .  A
C1805      C1810   1.397       .  A
C1806      C1807   1.405       .  A
C1806      H1819   1.083       .  S
C1807      C1808   1.419       .  A
C1807      H1820   1.078       .  S
C1808      C1814   1.432   1_565  A
C1808      C1809   1.423       .  A
C1809      C1811   1.397       .  A
C1809      C1810   1.396       .  A
C1810      H1821   1.086       .  S
C1811      C1812   1.383   1_565  A
C1811      H1822   1.084       .  S
C1812      C1813   1.397       .  A
C1812      H1823   1.084       .  S
C1813      C1814   1.423       .  A
C1813      C1818   1.396       .  A
C1814      C1815   1.419       .  A
C1815      C1816   1.405       .  A
C1815      H1824   1.078       .  S
C1816      C1817   1.399       .  A
C1816      H1825   1.083       .  S
C1817      C1818   1.395       .  A
C1818      H1826   1.086       .  S
C1827      C1828   1.400       .  A
C1827      C1832   1.401       .  A
C1828      C1829   1.402       .  A
C1828      H1841   1.084       .  S
C1829      C1830   1.418       .  A
C1829      H1842   1.078       .  S
C1830      C1836   1.434       .  A
C1830      C1831   1.423       .  A
C1831      C1833   1.400       .  A
C1831      C1832   1.406       .  A
C1832      H1843   1.085       .  S
C1833      C1834   1.390       .  A
C1833      H1844   1.084       .  S
C1834      C1835   1.399       .  A
C1834      H1845   1.084       .  S
C1835      C1836   1.424       .  A
C1835      C1840   1.408       .  A
C1836      C1837   1.415       .  A
C1837      C1838   1.400       .  A
C1837      H1846   1.078       .  S
C1838      C1839   1.399       .  A
C1838      H1847   1.084       .  S
C1839      C1840   1.398       .  A
C1840      H1848   1.085       .  S
C1849      C1850   1.397       .  A
C1849      C1854   1.396       .  A
C1850      C1851   1.401       .  A
C1850      H1863   1.083       .  S
C1851      C1852   1.418       .  A
C1851      H1864   1.078       .  S
C1852      C1858   1.431       .  A
C1852      C1853   1.423       .  A
C1853      C1855   1.398       .  A
C1853      C1854   1.400       .  A
C1854      H1865   1.086       .  S
C1855      C1856   1.387       .  A
C1855      H1866   1.084       .  S
C1856      C1857   1.398       .  A
C1856      H1867   1.084       .  S
C1857      C1858   1.424       .  A
C1857      C1862   1.401       .  A
C1858      C1859   1.417       .  A
C1859      C1860   1.401       .  A
C1859      H1868   1.077       .  S
C1860      C1861   1.397       .  A
C1860      H1869   1.083       .  S
C1861      C1862   1.397       .  A
C1862      H1870   1.086       .  S
C1871      C1872   1.403       .  A
C1871      C1876   1.406       .  A
C1872      C1873   1.397       .  A
C1872      H1885   1.083       .  S
C1873      C1874   1.414       .  A
C1873      H1886   1.076       .  S
C1874      C1880   1.435       .  A
C1874      C1875   1.423       .  A
C1875      C1877   1.401       .  A
C1875      C1876   1.413       .  A
C1876      H1887   1.084       .  S
C1877      C1878   1.394       .  A
C1877      H1888   1.084       .  S
C1878      C1879   1.401       .  A
C1878      H1889   1.084       .  S
C1879      C1880   1.422       .  A
C1879      C1884   1.411       .  A
C1880      C1881   1.416       .  A
C1881      C1882   1.399       .  A
C1881      H1890   1.076       .  S
C1882      C1883   1.402       .  A
C1882      H1891   1.083       .  S
C1883      C1884   1.406       .  A
C1884      H1892   1.084       .  S
C1893      C1894   1.399       .  A
C1893      C1898   1.400       .  A
C1894      C1895   1.404       .  A
C1894      H1907   1.083       .  S
C1895      C1896   1.419       .  A
C1895      H1908   1.078       .  S
C1896      C1902   1.433   1_655  A
C1896      C1897   1.421       .  A
C1897      C1899   1.399       .  A
C1897      C1898   1.402       .  A
C1898      H1909   1.085       .  S
C1899      C1900   1.388   1_655  A
C1899      H1910   1.084       .  S
C1900      C1901   1.398       .  A
C1900      H1911   1.084       .  S
C1901      C1902   1.425       .  A
C1901      C1906   1.406       .  A
C1902      C1903   1.416       .  A
C1903      C1904   1.400       .  A
C1903      H1912   1.078       .  S
C1904      C1905   1.399       .  A
C1904      H1913   1.084       .  S
C1905      C1906   1.396       .  A
C1906      H1914   1.085       .  S
C1915      C1916   1.398       .  A
C1915      C1920   1.398       .  A
C1916      C1917   1.403       .  A
C1916      H1929   1.083       .  S
C1917      C1918   1.418       .  A
C1917      H1930   1.078       .  S
C1918      C1924   1.433       .  A
C1918      C1919   1.423       .  A
C1919      C1921   1.399       .  A
C1919      C1920   1.402       .  A
C1920      H1931   1.086       .  S
C1921      C1922   1.387       .  A
C1921      H1932   1.084       .  S
C1922      C1923   1.398       .  A
C1922      H1933   1.084       .  S
C1923      C1924   1.424       .  A
C1923      C1928   1.401       .  A
C1924      C1925   1.418       .  A
C1925      C1926   1.402       .  A
C1925      H1934   1.078       .  S
C1926      C1927   1.398       .  A
C1926      H1935   1.084       .  S
C1927      C1928   1.396       .  A
C1928      H1936   1.086       .  S
C1937      C1938   1.400       .  A
C1937      C1942   1.402       .  A
C1938      C1939   1.402       .  A
C1938      H1951   1.083       .  S
C1939      C1940   1.417       .  A
C1939      H1952   1.078       .  S
C1940      C1946   1.435       .  A
C1940      C1941   1.423       .  A
C1941      C1943   1.400       .  A
C1941      C1942   1.408       .  A
C1942      H1953   1.085       .  S
C1943      C1944   1.392       .  A
C1943      H1954   1.084       .  S
C1944      C1945   1.400       .  A
C1944      H1955   1.084       .  S
C1945      C1946   1.423       .  A
C1945      C1950   1.410       .  A
C1946      C1947   1.415       .  A
C1947      C1948   1.401       .  A
C1947      H1956   1.078       .  S
C1948      C1949   1.403       .  A
C1948      H1957   1.083       .  S
C1949      C1950   1.404       .  A
C1950      H1958   1.085       .  S
C1959      C1960   1.395       .  A
C1959      C1964   1.399       .  A
C1960      C1961   1.400       .  A
C1960      H1973   1.083       .  S
C1961      C1962   1.419       .  A
C1961      H1974   1.077       .  S
C1962      C1968   1.430       .  A
C1962      C1963   1.421       .  A
C1963      C1965   1.399       .  A
C1963      C1964   1.400       .  A
C1964      H1975   1.085       .  S
C1965      C1966   1.389       .  A
C1965      H1976   1.084       .  S
C1966      C1967   1.399       .  A
C1966      H1977   1.084       .  S
C1967      C1968   1.424       .  A
C1967      C1972   1.405       .  A
C1968      C1969   1.413       .  A
C1969      C1970   1.396       .  A
C1969      H1978   1.077       .  S
C1970      C1971   1.402       .  A
C1970      H1979   1.083       .  S
C1971      C1972   1.402       .  A
C1972      H1980   1.085       .  S
C1981      C1982   1.402       .  A
C1981      C1986   1.404       .  A
C1982      C1983   1.402       .  A
C1982      H1995   1.083       .  S
C1983      C1984   1.418       .  A
C1983      H1996   1.078       .  S
C1984      C1990   1.437       .  A
C1984      C1985   1.422       .  A
C1985      C1987   1.400       .  A
C1985      C1986   1.409       .  A
C1986      H1997   1.084       .  S
C1987      C1988   1.392       .  A
C1987      H1998   1.084       .  S
C1988      C1989   1.400       .  A
C1988      H1999   1.084       .  S
C1989      C1990   1.425       .  A
C1989      C1994   1.413       .  A
C1990      C1991   1.414       .  A
C1991      C1992   1.399       .  A
C1991      H2000   1.078       .  S
C1992      C1993   1.404       .  A
C1992      H2001   1.083       .  S
C1993      C1994   1.403       .  A
C1994      H2002   1.084       .  S
C2003      C2004   1.396       .  A
C2003      C2008   1.402       .  A
C2004      C2005   1.391       .  A
C2004      H2017   1.084       .  S
C2005      C2006   1.414       .  A
C2005      H2018   1.076       .  S
C2006      C2012   1.430       .  A
C2006      C2007   1.424       .  A
C2007      C2009   1.402       .  A
C2007      C2008   1.413       .  A
C2008      H2019   1.084       .  S
C2009      C2010   1.395       .  A
C2009      H2020   1.084       .  S
C2010      C2011   1.401       .  A
C2010      H2021   1.084       .  S
C2011      C2012   1.424       .  A
C2011      C2016   1.413       .  A
C2012      C2013   1.414       .  A
C2013      C2014   1.392       .  A
C2013      H2022   1.076       .  S
C2014      C2015   1.397       .  A
C2014      H2023   1.084       .  S
C2015      C2016   1.402       .  A
C2016      H2024   1.084       .  S
C2025      C2026   1.399       .  A
C2025      C2030   1.402       .  A
C2026      C2027   1.401       .  A
C2026      H2039   1.084       .  S
C2027      C2028   1.417       .  A
C2027      H2040   1.078       .  S
C2028      C2034   1.432       .  A
C2028      C2029   1.422       .  A
C2029      C2031   1.401       .  A
C2029      C2030   1.406       .  A
C2030      H2041   1.085       .  S
C2031      C2032   1.392       .  A
C2031      H2042   1.084       .  S
C2032      C2033   1.400       .  A
C2032      H2043   1.084       .  S
C2033      C2034   1.423       .  A
C2033      C2038   1.409       .  A
C2034      C2035   1.414       .  A
C2035      C2036   1.398       .  A
C2035      H2044   1.078       .  S
C2036      C2037   1.402       .  A
C2036      H2045   1.083       .  S
C2037      C2038   1.403       .  A
C2038      H2046   1.085       .  S
C2047      C2048   1.396       .  A
C2047      C2052   1.397       .  A
C2048      C2049   1.400       .  A
C2048      H2061   1.083       .  S
C2049      C2050   1.418       .  A
C2049      H2062   1.077       .  S
C2050      C2056   1.431       .  A
C2050      C2051   1.423       .  A
C2051      C2053   1.399       .  A
C2051      C2052   1.401       .  A
C2052      H2063   1.085       .  S
C2053      C2054   1.388       .  A
C2053      H2064   1.084       .  S
C2054      C2055   1.399       .  A
C2054      H2065   1.084       .  S
C2055      C2056   1.423       .  A
C2055      C2060   1.402       .  A
C2056      C2057   1.416       .  A
C2057      C2058   1.400       .  A
C2057      H2066   1.078       .  S
C2058      C2059   1.401       .  A
C2058      H2067   1.083       .  S
C2059      C2060   1.401       .  A
C2060      H2068   1.085       .  S
C2069      C2070   1.396       .  A
C2069      C2074   1.395       .  A
C2070      C2071   1.394       .  A
C2070      H2083   1.084       .  S
C2071      C2072   1.414       .  A
C2071      H2084   1.077       .  S
C2072      C2078   1.428       .  A
C2072      C2073   1.425       .  A
C2073      C2075   1.398       .  A
C2073      C2074   1.404       .  A
C2074      H2085   1.085       .  S
C2075      C2076   1.388       .  A
C2075      H2086   1.084       .  S
C2076      C2077   1.399       .  A
C2076      H2087   1.084       .  S
C2077      C2078   1.422       .  A
C2077      C2082   1.401       .  A
C2078      C2079   1.417       .  A
C2079      C2080   1.397       .  A
C2079      H2088   1.077       .  S
C2080      C2081   1.399       .  A
C2080      H2089   1.084       .  S
C2081      C2082   1.400       .  A
C2082      H2090   1.085       .  S
C2091      C2092   1.395       .  A
C2091      C2096   1.397       .  A
C2092      C2093   1.395       .  A
C2092      H2105   1.084       .  S
C2093      C2094   1.416       .  A
C2093      H2106   1.077       .  S
C2094      C2100   1.429       .  A
C2094      C2095   1.423       .  A
C2095      C2097   1.399       .  A
C2095      C2096   1.405       .  A
C2096      H2107   1.085       .  S
C2097      C2098   1.390       .  A
C2097      H2108   1.084       .  S
C2098      C2099   1.400       .  A
C2098      H2109   1.084       .  S
C2099      C2100   1.424       .  A
C2099      C2104   1.406       .  A
C2100      C2101   1.415       .  A
C2101      C2102   1.394       .  A
C2101      H2110   1.077       .  S
C2102      C2103   1.399       .  A
C2102      H2111   1.084       .  S
C2103      C2104   1.400       .  A
C2104      H2112   1.085       .  S
