geometry optimzed in LAMMPS
_audit_creation_date              2020-12-01 
_audit_creation_method            'lammps2cif' 
_symmetry_space_group_name_H-M    'P1' 
_symmetry_Int_Tables_number       1 
_symmetry_cell_setting            triclinic 
loop_ 
_symmetry_equiv_pos_as_xyz 
  x,y,z 
_cell_length_a                    56.63391385 
_cell_length_b                    56.652449103601555 
_cell_length_c                    56.29059515399045 
_cell_angle_alpha                 90.19058987561908 
_cell_angle_beta                  89.61428232285955 
_cell_angle_gamma                 121.29654969546156 
loop_ 
_atom_site_label 
_atom_site_type_symbol 
_atom_site_fract_x 
_atom_site_fract_y 
_atom_site_fract_z 
_atom_site_charge 
O1          O  0.57927654  0.15386229  0.25035431    -0.85800
O2          O  0.62795599  0.16031310  0.26635823    -0.82800
C3          C  0.65061063  0.16112696  0.26687733     0.97700
O4          O  0.66223533  0.16083337  0.24760863    -0.82800
O5          O  0.62654810  0.10908625  0.22818017    -0.85500
C6          C  0.60420867  0.08981410  0.21953978     1.02200
O7          O  0.59054041  0.09523850  0.20515260    -0.78200
O8          O  0.56463945  0.11221478  0.23666636    -0.78400
C9          C  0.56257106  0.12809163  0.25118704     1.02200
O10         O  0.60915046  0.19239192  0.21322718    -0.85800
O11         O  0.65788370  0.20289491  0.23195859    -0.82800
C12         C  0.67019360  0.20596320  0.21241275     0.97700
O13         O  0.66668945  0.18514283  0.20109257    -0.82800
O14         O  0.63591590  0.13357297  0.18151781    -0.85500
C15         C  0.62208650  0.13841036  0.16682258     1.02200
O16         O  0.60180747  0.14014742  0.17392255    -0.78300
O17         O  0.57126226  0.15405843  0.20361189    -0.78400
C18         C  0.58531146  0.18022284  0.20446116     1.02200
Cr19       Cr  0.61839997  0.17543357  0.23910902     1.93700
Cr20       Cr  0.64575023  0.14723522  0.21502280     1.93200
Cr21       Cr  0.58442913  0.12699989  0.20574906     1.39100
O22         O  0.61611937  0.14972013  0.22004824    -1.23500
O23         O  0.77382653  0.24378997  0.42618476    -0.85800
O24         O  0.81854994  0.26798287  0.45673336    -0.82800
C25         C  0.83780932  0.28062774  0.44164537     0.97700
O26         O  0.84233577  0.30298397  0.43256269    -0.82800
O27         O  0.83015175  0.34139014  0.41493053    -0.85500
C28         C  0.81641179  0.33075021  0.39613279     1.02200
O29         O  0.79294752  0.30903212  0.39726775    -0.78200
O30         O  0.74893304  0.26076106  0.41348933    -0.78400
C31         C  0.75581983  0.24282590  0.41235518     1.02200
O32         O  0.74121075  0.25177912  0.46011857    -0.85800
O33         O  0.78715534  0.28212257  0.48853914    -0.82800
C34         C  0.81064327  0.30155048  0.49496667     0.97700
O35         O  0.83026432  0.31295483  0.48007698    -0.82800
O36         O  0.81334195  0.34655869  0.46232286    -0.85500
C37         C  0.79634500  0.35136799  0.45253864     1.02200
O38         O  0.78402534  0.33896315  0.43376387    -0.78300
O39         O  0.74236170  0.28999807  0.45202246    -0.78400
C40         C  0.72953780  0.26565389  0.45988646     1.02200
Cr41       Cr  0.78122905  0.26380439  0.45710726     1.93700
Cr42       Cr  0.82666776  0.32395852  0.44704349     1.93200
Cr43       Cr  0.76891763  0.29951456  0.42541027     1.39100
O44         O  0.79233228  0.29570748  0.44292169    -1.23500
O45         O  0.74272680  0.54044963  0.42541273    -0.85800
O46         O  0.71807104  0.55796067  0.45805284    -0.82800
C47         C  0.70385151  0.56351458  0.44445797     0.97700
O48         O  0.68150976  0.54432473  0.43588521    -0.82800
O49         O  0.64536400  0.49361089  0.41655847    -0.85500
C50         C  0.65693227  0.49463331  0.39691134     1.02200
O51         O  0.67906363  0.49438414  0.39653487    -0.78200
O52         O  0.72724792  0.49875417  0.41152443    -0.78400
C53         C  0.74417370  0.52442454  0.41058757     1.02200
O54         O  0.73562479  0.49816604  0.45803680    -0.85800
O55         O  0.70666876  0.51229816  0.48884304    -0.82800
C56         C  0.68742452  0.51533084  0.49659995     0.97700
O57         O  0.67306969  0.51994452  0.48236091    -0.82800
O58         O  0.64112476  0.46817475  0.46213398    -0.85500
C59         C  0.63650968  0.44757463  0.44979308     1.02200
O60         O  0.64886826  0.45089496  0.43024419    -0.78300
O61         O  0.69766619  0.45981974  0.44813844    -0.78400
C62         C  0.72139199  0.47204392  0.45726423     1.02200
Cr63       Cr  0.72342656  0.52568467  0.45668898     1.93700
Cr64       Cr  0.66232162  0.50632333  0.44884091     1.93200
Cr65       Cr  0.68838252  0.47786298  0.42303094     1.39100
O66         O  0.69143656  0.50336455  0.44285410    -1.23500
O67         O  0.54042113  0.39324712  0.26097606    -0.85800
O68         O  0.51572338  0.33660203  0.26190365    -0.82800
C69         C  0.49081078  0.32822915  0.26675269     0.97700
O70         O  0.47616928  0.33185167  0.25230571    -0.82800
O71         O  0.46267209  0.35470834  0.21568164    -0.85500
C72         C  0.46992758  0.37906005  0.22221801     1.02200
O73         O  0.49499427  0.39805265  0.22188965    -0.78200
O74         O  0.54990305  0.42266594  0.23186582    -0.78400
C75         C  0.55004146  0.41762244  0.25380294     1.02200
O76         O  0.57522432  0.39643454  0.22253300    -0.85800
O77         O  0.54480771  0.33991091  0.21934135    -0.82800
C78         C  0.52465801  0.31580263  0.21573624     0.97700
O79         O  0.49998208  0.31011699  0.21918357    -0.82800
O80         O  0.48909262  0.33477571  0.18341552    -0.85500
C81         C  0.49374333  0.35367340  0.16910585     1.02200
O82         O  0.50277815  0.37805707  0.17654908    -0.78300
O83         O  0.55757160  0.39911571  0.18892607    -0.78400
C84         C  0.57819551  0.40359827  0.20097485     1.02200
Cr85       Cr  0.54208288  0.36649573  0.23978935     1.93700
Cr86       Cr  0.48445394  0.33536863  0.21783934     1.93200
Cr87       Cr  0.52543752  0.39698948  0.20581402     1.39100
O88         O  0.51716161  0.36618216  0.22100848    -1.23500
O89         O  0.44167915  0.19801850  0.42225157    -0.85800
O90         O  0.42038257  0.15563087  0.45504791    -0.82800
C91         C  0.41328992  0.13545600  0.44109630     0.97700
O92         O  0.43075315  0.12949027  0.43393281    -0.82800
O93         O  0.48153817  0.14050962  0.41659459    -0.85500
C94         C  0.48285490  0.15092819  0.39637624     1.02200
O95         O  0.48442366  0.17388786  0.39490581    -0.78200
O96         O  0.48353076  0.22046368  0.40688459    -0.78400
C97         C  0.45870366  0.21442088  0.40699024     1.02200
O98         O  0.48475139  0.23288326  0.45413938    -0.85800
O99         O  0.46714326  0.18982003  0.48576254    -0.82800
C100        C  0.46137804  0.16687739  0.49431807     0.97700
O101        O  0.45375004  0.14633707  0.48075394    -0.82800
O102        O  0.50548983  0.16350418  0.46235505    -0.85500
C103        C  0.52723747  0.17867556  0.45052547     1.02200
O104        O  0.52609764  0.18750902  0.43025063    -0.78300
O105        O  0.52132856  0.23121396  0.44434320    -0.78400
C106        C  0.51070987  0.24430221  0.45271132     1.02200
Cr107      Cr  0.45483890  0.19297430  0.45352533     1.93700
Cr108      Cr  0.46828320  0.14723501  0.44785511     1.93200
Cr109      Cr  0.50178399  0.20158384  0.42051005     1.39100
O110        O  0.47484147  0.18062099  0.44044406    -1.23500
O111        O  0.81341902  0.42712582  0.24659528    -0.85800
O112        O  0.81137321  0.47242074  0.26114898    -0.82800
C113        C  0.81440279  0.49609791  0.26097859     0.97700
O114        O  0.81847413  0.50888941  0.24153169    -0.82800
O115        O  0.87032192  0.52004671  0.22685108    -0.85500
C116        C  0.88821378  0.51461777  0.21976901     1.02200
O117        O  0.88184052  0.49552743  0.20477584    -0.78200
O118        O  0.85689152  0.45101490  0.23516453    -0.78400
C119        C  0.83821440  0.43328907  0.24863916     1.02200
O120        O  0.78001309  0.42119391  0.20666172    -0.85800
O121        O  0.77398838  0.46337949  0.22298015    -0.82800
C122        C  0.77548730  0.47584854  0.20393483     0.97700
O123        O  0.79848821  0.49140780  0.19390817    -0.82800
O124        O  0.85115185  0.50786456  0.17853567    -0.85500
C125        C  0.84368748  0.48832668  0.16384853     1.02200
O126        O  0.83757103  0.46472703  0.17102110    -0.78300
O127        O  0.81669179  0.41871378  0.19984169    -0.78400
C128        C  0.79076191  0.40790706  0.19908875     1.02200
Cr129      Cr  0.79690707  0.44779105  0.23312707     1.93700
Cr130      Cr  0.83413320  0.50466858  0.21062529     1.93200
Cr131      Cr  0.84686205  0.45856402  0.20342582     1.39100
O132        O  0.82604589  0.47036309  0.21592570    -1.23500
O133        O  0.47537347  0.25422200  0.91257685    -0.85800
O134        O  0.48377706  0.30427166  0.89690807    -0.82800
C135        C  0.48588415  0.32757505  0.89702256     0.97700
O136        O  0.48691321  0.33912865  0.91659688    -0.82800
O137        O  0.43471489  0.30433487  0.93439034    -0.85500
C138        C  0.41440091  0.28253605  0.94278561     1.02200
O139        O  0.41800792  0.26789023  0.95759923    -0.78200
O140        O  0.43400721  0.24055082  0.92671268    -0.78400
C141        C  0.44952555  0.23789452  0.91215176     1.02200
O142        O  0.51411969  0.28246055  0.94951843    -0.85800
O143        O  0.52658483  0.33199931  0.93149946    -0.82800
C144        C  0.53012291  0.34407186  0.95120139     0.97700
O145        O  0.50961643  0.34102876  0.96289954    -0.82800
O146        O  0.45698502  0.31186584  0.98160962    -0.85500
C147        C  0.46115591  0.29771805  0.99643580     1.02200
O148        O  0.46196159  0.27691144  0.98953353    -0.78300
O149        O  0.47484350  0.24575200  0.96001482    -0.78400
C150        C  0.50101808  0.25890004  0.95890731     1.02200
Cr151      Cr  0.49804018  0.29308548  0.92395643     1.93700
Cr152      Cr  0.47200191  0.32195019  0.94854520     1.93200
Cr153      Cr  0.44887049  0.26010460  0.95757532     1.39100
O154        O  0.47286564  0.29158018  0.94333457    -1.23500
O155        O  0.56695102  0.45346455  0.73777173    -0.85800
O156        O  0.58832657  0.49815548  0.70704099    -0.82800
C157        C  0.60130346  0.51752822  0.72185440     0.97700
O158        O  0.62453221  0.52287937  0.72950539    -0.82800
O159        O  0.66473048  0.51214137  0.74516026    -0.85500
C160        C  0.65529627  0.49852529  0.76426029     1.02200
O161        O  0.63403266  0.47466096  0.76390884    -0.78200
O162        O  0.58552246  0.42956668  0.74914270    -0.78400
C163        C  0.56712874  0.43573374  0.75128156     1.02200
O164        O  0.57461294  0.42184333  0.70263572    -0.85800
O165        O  0.60241338  0.46771624  0.67359513    -0.82800
C166        C  0.62154099  0.49116911  0.66656672     0.97700
O167        O  0.63321484  0.51089058  0.68126159    -0.82800
O168        O  0.66895872  0.49561154  0.69762280    -0.85500
C169        C  0.67509103  0.47940714  0.70720471     1.02200
O170        O  0.66295762  0.46634677  0.72589983    -0.78300
O171        O  0.61352088  0.42376381  0.70923078    -0.78400
C172        C  0.58892238  0.41064261  0.70201222     1.02200
Cr173      Cr  0.58557833  0.46143273  0.70596891     1.93700
Cr174      Cr  0.64580434  0.50793655  0.71383578     1.93200
Cr175      Cr  0.62370995  0.45046798  0.73576065     1.39100
O176        O  0.61835244  0.47332046  0.71873423    -1.23500
O177        O  0.52281398  0.12610214  0.73888750    -0.85800
O178        O  0.47933978  0.10278625  0.70754774    -0.82800
C179        C  0.45937840  0.09558860  0.72192753     0.97700
O180        O  0.45335623  0.11302552  0.72909852    -0.82800
O181        O  0.46366473  0.16399385  0.74508061    -0.85500
C182        C  0.47451804  0.16554988  0.76505929     1.02200
O183        O  0.49806164  0.16831205  0.76604437    -0.78200
O184        O  0.54504387  0.16839957  0.75306944    -0.78400
C185        C  0.53950181  0.14374053  0.75353723     1.02200
O186        O  0.55606155  0.16859216  0.70538736    -0.85800
O187        O  0.51148835  0.14908673  0.67508960    -0.82800
C188        C  0.48805422  0.14280392  0.66735627     0.97700
O189        O  0.46798537  0.13450625  0.68164989    -0.82800
O190        O  0.48487785  0.18663642  0.69836844    -0.85500
C191        C  0.50054352  0.20890102  0.70924260     1.02200
O192        O  0.50972789  0.20861912  0.72956184    -0.78300
O193        O  0.55420671  0.20506524  0.71502568    -0.78400
C194        C  0.56735001  0.19457575  0.70644751     1.02200
Cr195      Cr  0.51632911  0.13797297  0.70747009     1.93700
Cr196      Cr  0.46981654  0.15007268  0.71406761     1.93200
Cr197      Cr  0.52502740  0.18549681  0.73959202     1.39100
O198        O  0.50379667  0.15775804  0.72055321    -1.23500
O199        O  0.70748890  0.21123228  0.89802354    -0.85800
O200        O  0.65099484  0.18473899  0.90052030    -0.82800
C201        C  0.64496083  0.16053262  0.89560981     0.97700
O202        O  0.64974004  0.14688323  0.91031042    -0.82800
O203        O  0.67541473  0.13699884  0.94705067    -0.85500
C204        C  0.69993054  0.14538451  0.94014427     1.02200
O205        O  0.71793441  0.17072661  0.93956998    -0.78200
O206        O  0.73933916  0.22388938  0.92544366    -0.78400
C207        C  0.73249668  0.22198395  0.90366498     1.02200
O208        O  0.71200759  0.24795109  0.93481245    -0.85800
O209        O  0.65603228  0.21558251  0.94198464    -0.82800
C210        C  0.63251003  0.19497777  0.94670671     0.97700
O211        O  0.62745252  0.17051504  0.94341354    -0.82800
O212        O  0.65483487  0.16303592  0.97888306    -0.85500
C213        C  0.67470224  0.17022919  0.99278037     1.02200
O214        O  0.69911908  0.18048744  0.98469643    -0.78300
O215        O  0.71717122  0.23356261  0.96915753    -0.78400
C216        C  0.72055968  0.25294859  0.95592405     1.02200
Cr217      Cr  0.68172019  0.21310288  0.92030664     1.93700
Cr218      Cr  0.65423564  0.15682059  0.94458688     1.93200
Cr219      Cr  0.71588682  0.20113307  0.95384374     1.39100
O220        O  0.68391214  0.19011706  0.93974023    -1.23500
O221        O  0.86474244  0.42375648  0.73439721    -0.85800
O222        O  0.88243641  0.39893323  0.70270241    -0.82800
C223        C  0.88624941  0.38400688  0.71703339     0.97700
O224        O  0.86593199  0.36143757  0.72434297    -0.82800
O225        O  0.81283718  0.32453396  0.73983178    -0.85500
C226        C  0.81236120  0.33423832  0.75998015     1.02200
O227        O  0.81381197  0.35720612  0.76140917    -0.78200
O228        O  0.82275397  0.40828027  0.74803140    -0.78400
C229        C  0.84846303  0.42526244  0.74884150     1.02200
O230        O  0.82518356  0.42022969  0.70091996    -0.85800
O231        O  0.83911111  0.39089803  0.67035326    -0.82800
C232        C  0.84205404  0.37172994  0.66240951     0.97700
O233        O  0.84592762  0.35679859  0.67657301    -0.82800
O234        O  0.79196312  0.32496331  0.69363231    -0.85500
C235        C  0.77064933  0.32042366  0.70502043     1.02200
O236        O  0.77284197  0.33207891  0.72474582    -0.78300
O237        O  0.78551490  0.38304056  0.70962007    -0.78400
C238        C  0.79903158  0.40720948  0.70133192     1.02200
Cr239      Cr  0.85114555  0.40597940  0.70287124     1.93700
Cr240      Cr  0.82912286  0.34408617  0.70901871     1.93200
Cr241      Cr  0.80077458  0.37038403  0.73462408     1.39100
O242        O  0.82703979  0.37357114  0.71558484    -1.23500
O243        O  0.75141576  0.49320939  0.91143516    -0.85800
O244        O  0.79799006  0.49354028  0.89625342    -0.82800
C245        C  0.82145026  0.49605582  0.89650075     0.97700
O246        O  0.83324710  0.49799413  0.91605756    -0.82800
O247        O  0.84475515  0.54890520  0.93270082    -0.85500
C248        C  0.83921299  0.56656132  0.94017700     1.02200
O249        O  0.81943281  0.55960332  0.95472561    -0.78200
O250        O  0.77518337  0.53589112  0.92449365    -0.78400
C251        C  0.75789146  0.51814522  0.91028650     1.02200
O252        O  0.74565828  0.45748094  0.94952230    -0.85800
O253        O  0.78853897  0.45335394  0.93194653    -0.82800
C254        C  0.79956238  0.45306928  0.95130077     0.97700
O255        O  0.81402096  0.47509376  0.96290722    -0.82800
O256        O  0.83149109  0.52747030  0.98006858    -0.85500
C257        C  0.81181898  0.51948045  0.99470651     1.02200
O258        O  0.78827790  0.51355233  0.98765395    -0.78300
O259        O  0.74273501  0.49345169  0.95875177    -0.78400
C260        C  0.73228485  0.46752595  0.95839445     1.02200
Cr261      Cr  0.77256933  0.47650319  0.92358531     1.93700
Cr262      Cr  0.82852039  0.51186829  0.94755034     1.93200
Cr263      Cr  0.78243523  0.52433157  0.95564214     1.39100
O264        O  0.79452974  0.50440863  0.94207473    -1.23500
O265        O  0.25608634  0.48465558  0.59429537    -0.85800
O266        O  0.31243345  0.52028632  0.59298312    -0.82800
C267        C  0.32102370  0.50402347  0.59607974     0.97700
O268        O  0.31746331  0.48670127  0.58035403    -0.82800
O269        O  0.29305772  0.45088232  0.54323141    -0.85500
C270        C  0.26933189  0.43285224  0.55106423     1.02200
O271        O  0.24987779  0.43747515  0.55163367    -0.78200
O272        O  0.22504995  0.46494543  0.56623276    -0.78400
C273        C  0.23132759  0.46896403  0.58813175     1.02200
O274        O  0.24977327  0.51723813  0.55916447    -0.85800
O275        O  0.30593400  0.54702967  0.55326938    -0.82800
C276        C  0.32999572  0.55263613  0.54804320     0.97700
O277        O  0.33630053  0.53410477  0.54899131    -0.82800
O278        O  0.31032040  0.49864719  0.51238140    -0.85500
C279        C  0.29078873  0.48351954  0.49862020     1.02200
O280        O  0.26679300  0.46713162  0.50691938    -0.78300
O281        O  0.24594006  0.49931857  0.52389033    -0.78400
C282        C  0.24146653  0.51396284  0.53797416     1.02200
Cr283      Cr  0.28106131  0.51550458  0.57333485     1.93700
Cr284      Cr  0.31183785  0.49245659  0.54656212     1.93200
Cr285      Cr  0.24942893  0.46894370  0.53798594     1.39100
O286        O  0.28092851  0.49230895  0.55238846    -1.23500
O287        O  0.10141001  0.53225493  0.76036240    -0.85800
O288        O  0.08543840  0.49016075  0.79270158    -0.82800
C289        C  0.08001343  0.47105215  0.77797801     0.97700
O290        O  0.09894300  0.46767456  0.76991900    -0.82800
O291        O  0.15042087  0.48298400  0.75161424    -0.85500
C292        C  0.14893030  0.49188192  0.73146543     1.02200
O293        O  0.14725980  0.51315753  0.73002035    -0.78200
O294        O  0.14178519  0.55702138  0.74271375    -0.78400
C295        C  0.11633939  0.54852746  0.74407151     1.02200
O296        O  0.14503801  0.57009509  0.79096743    -0.85800
O297        O  0.13224244  0.52745102  0.82224726    -0.82800
C298        C  0.12840990  0.50494567  0.83022163     0.97700
O299        O  0.12260285  0.48524224  0.81619792    -0.82800
O300        O  0.17517734  0.50766428  0.79634357    -0.85500
C301        C  0.19563972  0.52448401  0.78368062     1.02200
O302        O  0.19186584  0.53184259  0.76357166    -0.78300
O303        O  0.18269171  0.57191566  0.77839221    -0.78400
C304        C  0.17103618  0.58303558  0.78854317     1.02200
Cr305      Cr  0.11760579  0.52919262  0.79067260     1.93700
Cr306      Cr  0.13686890  0.48799969  0.78310771     1.93200
Cr307      Cr  0.16399550  0.54179410  0.75512202     1.39100
O308        O  0.13943507  0.51978406  0.77622520    -1.23500
O309        O  0.40673732  0.87636271  0.76530869    -0.85800
O310        O  0.38104520  0.89418970  0.79596960    -0.82800
C311        C  0.36776759  0.89942341  0.78101586     0.97700
O312        O  0.34544647  0.88008850  0.77247961    -0.82800
O313        O  0.30913138  0.82798082  0.75423857    -0.85500
C314        C  0.31985814  0.82602850  0.73508410     1.02200
O315        O  0.34209054  0.82595968  0.73556571    -0.78200
O316        O  0.39172660  0.83446697  0.75172472    -0.78400
C317        C  0.40895565  0.86019022  0.75128890     1.02200
O318        O  0.40043711  0.83571124  0.79860634    -0.85800
O319        O  0.36905649  0.84908863  0.82750465    -0.82800
C320        C  0.34886576  0.85102588  0.83444722     0.97700
O321        O  0.33565109  0.85658074  0.81970752    -0.82800
O322        O  0.30416575  0.80496021  0.80072227    -0.85500
C323        C  0.30001252  0.78352655  0.79010914     1.02200
O324        O  0.31361599  0.78507096  0.77170959    -0.78300
O325        O  0.36320005  0.79649826  0.78976017    -0.78400
C326        C  0.38739687  0.80960039  0.79784385     1.02200
Cr327      Cr  0.38682144  0.86217080  0.79599789     1.93700
Cr328      Cr  0.32584738  0.84231546  0.78637528     1.93200
Cr329      Cr  0.35279216  0.81257684  0.76354485     1.39100
O330        O  0.35516958  0.83908633  0.78179288    -1.23500
O331        O  0.21419609  0.72370288  0.59086231    -0.85800
O332        O  0.16593538  0.67622821  0.60306471    -0.82800
C333        C  0.14227301  0.65482306  0.60162238     0.97700
O334        O  0.13127930  0.64607787  0.58147568    -0.82800
O335        O  0.12414864  0.68813778  0.56345128    -0.85500
C336        C  0.13101402  0.71153585  0.55492284     1.02200
O337        O  0.15246694  0.72442202  0.54199282    -0.78200
O338        O  0.19441937  0.74480681  0.57549404    -0.78400
C339        C  0.21007440  0.74357272  0.59073236     1.02200
O340        O  0.22331754  0.69532411  0.55375478    -0.85800
O341        O  0.17697620  0.64632224  0.56775253    -0.82800
C342        C  0.16649376  0.63522289  0.54801993     0.97700
O343        O  0.15338950  0.64336311  0.53592761    -0.82800
O344        O  0.14040047  0.67998575  0.51723098    -0.85500
C345        C  0.16126982  0.69157864  0.50366630     1.02200
O346        O  0.18455459  0.70913359  0.51205260    -0.78300
O347        O  0.22762175  0.73470477  0.54388530    -0.78400
C348        C  0.23788228  0.71962041  0.54580366     1.02200
Cr349      Cr  0.19347052  0.68583746  0.57737235     1.93700
Cr350      Cr  0.13973591  0.66634088  0.55016608     1.93200
Cr351      Cr  0.18846730  0.72573603  0.54416245     1.39100
O352        O  0.17391412  0.69278476  0.55746239    -1.23500
O353        O  0.44198395  0.58532685  0.75597111    -0.85800
O354        O  0.48436661  0.60424212  0.78798610    -0.82800
C355        C  0.50510394  0.61751093  0.77432020     0.97700
O356        O  0.51218347  0.64155932  0.76738744    -0.82800
O357        O  0.50462053  0.68370900  0.75121744    -0.85500
C358        C  0.49333642  0.67494067  0.73116287     1.02200
O359        O  0.46957985  0.65363694  0.72990807    -0.78200
O360        O  0.42132024  0.60608925  0.74188760    -0.78400
C361        C  0.42653660  0.58696796  0.74086771     1.02200
O362        O  0.40927401  0.59469069  0.78936773    -0.85800
O363        O  0.45318240  0.61875082  0.82025803    -0.82800
C364        C  0.47654133  0.63617626  0.82855884     0.97700
O365        O  0.49714311  0.64857602  0.81474081    -0.82800
O366        O  0.48351167  0.68560900  0.79760015    -0.85500
C367        C  0.46962886  0.69349207  0.78630228     1.02200
O368        O  0.45952772  0.68324550  0.76625913    -0.78300
O369        O  0.41365752  0.63437940  0.78050825    -0.78400
C370        C  0.39935788  0.61021187  0.78872900     1.02200
Cr371      Cr  0.44840211  0.60326922  0.78766762     1.93700
Cr372      Cr  0.49697464  0.66296299  0.78218513     1.93200
Cr373      Cr  0.44263619  0.64384275  0.75606838     1.39100
O374        O  0.46263376  0.63657985  0.77517973    -1.23500
O375        O  0.49503072  0.77583782  0.59143080    -0.85800
O376        O  0.49335899  0.82103281  0.60756359    -0.82800
C377        C  0.49286519  0.84303963  0.60768725     0.97700
O378        O  0.49092992  0.85325183  0.58830975    -0.82800
O379        O  0.54073618  0.86937623  0.56681962    -0.85500
C380        C  0.55910941  0.86494855  0.55915130     1.02200
O381        O  0.55317205  0.84562949  0.54452043    -0.78200
O382        O  0.53588171  0.80196656  0.57535547    -0.78400
C383        C  0.52039563  0.78417379  0.59047120     1.02200
O384        O  0.45473913  0.76609027  0.55699552    -0.85800
O385        O  0.44822029  0.80651124  0.57641927    -0.82800
C386        C  0.44314860  0.81317898  0.55662181     0.97700
O387        O  0.46295070  0.82995036  0.54343176    -0.82800
O388        O  0.51370691  0.85213277  0.52127668    -0.85500
C389        C  0.50880645  0.83296899  0.50686775     1.02200
O390        O  0.50700101  0.81103762  0.51409297    -0.78300
O391        O  0.49155043  0.76659564  0.54373508    -0.78400
C392        C  0.46553984  0.75443503  0.54627685     1.02200
Cr393      Cr  0.47473207  0.79410605  0.58161810     1.93700
Cr394      Cr  0.50197390  0.84902826  0.55527351     1.93200
Cr395      Cr  0.52042217  0.80717519  0.54543765     1.39100
O396        O  0.49925819  0.81681256  0.56074615    -1.23500
O397        O  0.23109556  0.77280505  0.07624623    -0.85800
O398        O  0.24994619  0.82366494  0.05782112    -0.82800
C399        C  0.26761237  0.84911324  0.05823947     0.97700
O400        O  0.29291368  0.85831746  0.05372039    -0.82800
O401        O  0.32030223  0.84961912  0.08976649    -0.85500
C402        C  0.32814034  0.83743738  0.10326240     1.02200
O403        O  0.32108870  0.81289134  0.09898850    -0.78200
O404        O  0.26366474  0.78714596  0.10347567    -0.78400
C405        C  0.23845831  0.77597893  0.09796349     1.02200
O406        O  0.25208462  0.75919101  0.03379845    -0.85800
O407        O  0.26856441  0.81038461  0.01464579    -0.82800
C408        C  0.29326108  0.82279946  0.00708732     0.97700
O409        O  0.31324791  0.83306064  0.02121445    -0.82800
O410        O  0.34161916  0.82535761  0.05539524    -0.85500
C411        C  0.33657346  0.80071575  0.05294287     1.02200
O412        O  0.31342011  0.78025035  0.05899753    -0.78300
O413        O  0.25785745  0.74818139  0.06926735    -0.78400
C414        C  0.24865007  0.74104112  0.04856235     1.02200
Cr415      Cr  0.25309026  0.79271388  0.04656352     1.93700
Cr416      Cr  0.31459365  0.83906319  0.05544112     1.93200
Cr417      Cr  0.28877229  0.78392906  0.08113780     1.39100
O418        O  0.28546852  0.80557529  0.06079601    -1.23500
O419        O  0.42377572  0.82626022  0.24625693    -0.85800
O420        O  0.46809351  0.82209363  0.23387334    -0.82800
C421        C  0.49079451  0.82309261  0.23481024     0.97700
O422        O  0.50162730  0.82423563  0.25469582    -0.82800
O423        O  0.51531965  0.87578922  0.27167390    -0.85500
C424        C  0.51077882  0.89426342  0.27869835     1.02200
O425        O  0.49112302  0.88842150  0.29298537    -0.78200
O426        O  0.44880736  0.86820836  0.26071264    -0.78400
C427        C  0.43270135  0.85180855  0.24513259     1.02200
O428        O  0.41175586  0.78856763  0.28480319    -0.85800
O429        O  0.45326132  0.78059443  0.26982998    -0.82800
C430        C  0.46377510  0.77955041  0.28922536     0.97700
O431        O  0.47960369  0.80120127  0.30073270    -0.82800
O432        O  0.49840148  0.85283629  0.31884823    -0.85500
C433        C  0.47866390  0.84758668  0.33283313     1.02200
O434        O  0.45618509  0.84386468  0.32485044    -0.78300
O435        O  0.41232909  0.82655152  0.29361104    -0.78400
C436        C  0.39978456  0.80043435  0.29294175     1.02200
Cr437      Cr  0.44097708  0.80641713  0.26017785     1.93700
Cr438      Cr  0.49639221  0.83829413  0.28601020     1.93200
Cr439      Cr  0.45295099  0.85512673  0.29224769     1.39100
O440        O  0.46337617  0.83325374  0.27950380    -1.23500
O441        O  0.15544299  0.59346874  0.24955966    -0.85800
O442        O  0.15730009  0.64171668  0.23764321    -0.82800
C443        C  0.15579438  0.66309379  0.23957038     0.97700
O444        O  0.15361660  0.67145193  0.25990237    -0.82800
O445        O  0.10172668  0.63020495  0.27476657    -0.85500
C446        C  0.08312341  0.60608549  0.28087559     1.02200
O447        O  0.08891619  0.59163398  0.29402601    -0.78200
O448        O  0.11239694  0.57270893  0.26197749    -0.78400
C449        C  0.13057252  0.57405847  0.24797465     1.02200
O450        O  0.19042738  0.62056649  0.28882326    -0.85800
O451        O  0.19675781  0.66987375  0.27465557    -0.82800
C452        C  0.19724044  0.67948802  0.29500970     0.97700
O453        O  0.17504428  0.67158831  0.30637711    -0.82800
O454        O  0.12168940  0.63475937  0.32215983    -0.85500
C455        C  0.12864619  0.62172538  0.33570642     1.02200
O456        O  0.13358074  0.60411257  0.32718125    -0.78300
O457        O  0.15308783  0.58050386  0.29612236    -0.78400
C458        C  0.17914211  0.59602762  0.29623956     1.02200
Cr459      Cr  0.17281731  0.63087770  0.26397571     1.93700
Cr460      Cr  0.13843112  0.65011890  0.29026122     1.93200
Cr461      Cr  0.12336867  0.58974611  0.29418207     1.39100
O462        O  0.14468441  0.62341741  0.28260252    -1.23500
O463        O  0.19484559  0.45457152  0.06752096    -0.85800
O464        O  0.14978364  0.43324371  0.03735425    -0.82800
C465        C  0.13099201  0.42623825  0.05290236     0.97700
O466        O  0.12735031  0.44419828  0.06260750    -0.82800
O467        O  0.13957464  0.49389062  0.08178107    -0.85500
C468        C  0.15236975  0.49518669  0.10058073     1.02200
O469        O  0.17564336  0.49734572  0.09925711    -0.78200
O470        O  0.22057337  0.49684734  0.08119515    -0.78400
C471        C  0.21314447  0.47161338  0.08154815     1.02200
O472        O  0.22743918  0.49805892  0.03445254    -0.85800
O473        O  0.18159674  0.48079554  0.00651147    -0.82800
C474        C  0.15807616  0.47577350  0.00035609     0.97700
O475        O  0.13883822  0.46782709  0.01551427    -0.82800
O476        O  0.15689911  0.51897873  0.03537982    -0.85500
C477        C  0.17168342  0.54017684  0.04781178     1.02200
O478        O  0.18439715  0.53899992  0.06570774    -0.78300
O479        O  0.22607241  0.53455919  0.04505265    -0.78400
C480        C  0.23875684  0.52406029  0.03562119     1.02200
Cr481      Cr  0.18750611  0.46797298  0.03736577     1.93700
Cr482      Cr  0.14296466  0.48157104  0.04902355     1.93200
Cr483      Cr  0.19995698  0.51499172  0.07144752     1.39100
O484        O  0.17684054  0.48815845  0.05267289    -1.23500
O485        O  0.53356104  0.75070583  0.07128774    -0.85800
O486        O  0.55145280  0.72746085  0.03777039    -0.82800
C487        C  0.55633181  0.71254101  0.05121080     0.97700
O488        O  0.53667252  0.69010992  0.05936521    -0.82800
O489        O  0.48498943  0.65207054  0.07688303    -0.85500
C490        C  0.48483958  0.66208518  0.09702471     1.02200
O491        O  0.48509556  0.68442933  0.09825145    -0.78200
O492        O  0.49178361  0.73424895  0.08595130    -0.78400
C493        C  0.51751840  0.75115410  0.08672909     1.02200
O494        O  0.49207849  0.74634340  0.03951157    -0.85800
O495        O  0.50565241  0.71780554  0.00743618    -0.82800
C496        C  0.50849710  0.69875447  0.99899059     0.97700
O497        O  0.51438527  0.68477001  0.01251259    -0.82800
O498        O  0.46202589  0.65175321  0.03098502    -0.85500
C499        C  0.44084406  0.64673810  0.04267402     1.02200
O500        O  0.44304272  0.65770950  0.06273664    -0.78300
O501        O  0.45338678  0.70813337  0.04812987    -0.78400
C502        C  0.46590899  0.73258188  0.04048000     1.02200
Cr503      Cr  0.51912936  0.73317793  0.03973223     1.93700
Cr504      Cr  0.49936920  0.67170492  0.04545448     1.93200
Cr505      Cr  0.47025935  0.69638657  0.07235047     1.39100
O506        O  0.49632661  0.70050873  0.05262308    -1.23500
O507        O  0.38866259  0.56025901  0.24271776    -0.85800
O508        O  0.33971431  0.51637073  0.22617762    -0.82800
C509        C  0.31735179  0.49330846  0.22578037     0.97700
O510        O  0.30627475  0.48066289  0.24502443    -0.82800
O511        O  0.34178145  0.46515838  0.26340077    -0.85500
C512        C  0.36389749  0.46850851  0.27208578     1.02200
O513        O  0.37825055  0.48865610  0.28588034    -0.78200
O514        O  0.40383196  0.53367143  0.25468999    -0.78400
C515        C  0.40586833  0.55252345  0.24122250     1.02200
O516        O  0.35962896  0.56717853  0.28084064    -0.85800
O517        O  0.31043005  0.52733071  0.26165844    -0.82800
C518        C  0.29818882  0.51714817  0.28106909     0.97700
O519        O  0.30190296  0.49984199  0.29185630    -0.82800
O520        O  0.33262939  0.47975857  0.31065544    -0.85500
C521        C  0.34660555  0.49894927  0.32538869     1.02200
O522        O  0.36717359  0.52145958  0.31822834    -0.78300
O523        O  0.39720884  0.56699758  0.28926551    -0.78400
C524        C  0.38358628  0.57897599  0.28944082     1.02200
Cr525      Cr  0.34978025  0.54087583  0.25420220     1.93700
Cr526      Cr  0.32278512  0.48367715  0.27727302     1.93200
Cr527      Cr  0.38416569  0.52673083  0.28607297     1.39100
O528        O  0.35232392  0.51696717  0.27234400    -1.23500
O529        O  0.90270983  0.12348786  0.40860571    -0.85800
O530        O  0.92516555  0.16659260  0.37651983    -0.82800
C531        C  0.93868401  0.18598661  0.39113132     0.97700
O532        O  0.96191885  0.19109284  0.39845245    -0.82800
O533        O  0.00070302  0.17889353  0.41449274    -0.85500
C534        C  0.99087233  0.16660226  0.43412332     1.02200
O535        O  0.96907499  0.14310908  0.43445450    -0.78200
O536        O  0.91959199  0.09841367  0.42087943    -0.78400
C537        C  0.90219556  0.10592124  0.42268465     1.02200
O538        O  0.90779985  0.08902922  0.37466060    -0.85800
O539        O  0.93577738  0.13355683  0.34414831    -0.82800
C540        C  0.95438821  0.15676730  0.33626331     0.97700
O541        O  0.96847456  0.17655375  0.35049735    -0.82800
O542        O  0.00258811  0.15932825  0.36729712    -0.85500
C543        C  0.00778171  0.14275200  0.37750361     1.02200
O544        O  0.99646183  0.13178219  0.39708204    -0.78300
O545        O  0.94623660  0.08991351  0.38133417    -0.78400
C546        C  0.92164177  0.07733532  0.37411609     1.02200
Cr547      Cr  0.92035225  0.12915168  0.37673203     1.93700
Cr548      Cr  0.98142183  0.17414645  0.38316395     1.93200
Cr549      Cr  0.95760792  0.11759770  0.40711994     1.39100
O550        O  0.95312222  0.14033042  0.38914139    -1.23500
O551        O  0.08819761  0.16766571  0.58129852    -0.85800
O552        O  0.13114788  0.16305268  0.56394706    -0.82800
C553        C  0.15418894  0.16466198  0.56277809     0.97700
O554        O  0.16749985  0.16710418  0.58155516    -0.82800
O555        O  0.18385443  0.21933909  0.59866613    -0.85500
C556        C  0.18125107  0.23841189  0.60748616     1.02200
O557        O  0.16155693  0.23261410  0.62174349    -0.78200
O558        O  0.11585709  0.21082898  0.59192573    -0.78400
C559        C  0.09646731  0.19299413  0.57912330     1.02200
O560        O  0.08251073  0.13285951  0.62013929    -0.85800
O561        O  0.12108974  0.12359096  0.60030246    -0.82800
C562        C  0.13290682  0.12311609  0.61904431     0.97700
O563        O  0.15032025  0.14529695  0.62911288    -0.82800
O564        O  0.17090670  0.19751767  0.64643703    -0.85500
C565        C  0.15224264  0.19230214  0.66164956     1.02200
O566        O  0.12946610  0.18912971  0.65519326    -0.78300
O567        O  0.08296079  0.17094530  0.62785655    -0.78400
C568        C  0.07096452  0.14487321  0.62882155     1.02200
Cr569      Cr  0.10766515  0.14893523  0.59263698     1.93700
Cr570      Cr  0.16577596  0.18201894  0.61357066     1.93200
Cr571      Cr  0.12332049  0.19939165  0.62324079     1.39100
O572        O  0.13236482  0.17693397  0.60967793    -1.23500
O573        O  0.19053561  0.08389882  0.40147677    -0.85800
O574        O  0.21281034  0.06269343  0.37040450    -0.82800
C575        C  0.21757630  0.04810541  0.38428069     0.97700
O576        O  0.19804529  0.02499345  0.39142894    -0.82800
O577        O  0.14532603  0.98642441  0.40668252    -0.85500
C578        C  0.14351152  0.99676815  0.42611997     1.02200
O579        O  0.14173372  0.01803544  0.42610980    -0.78200
O580        O  0.14715943  0.06674850  0.41167855    -0.78400
C581        C  0.17253070  0.08431560  0.41449611     1.02200
O582        O  0.15195559  0.07842014  0.36582860    -0.85800
O583        O  0.17033185  0.05221280  0.33660810    -0.82800
C584        C  0.17461882  0.03379659  0.32904796     0.97700
O585        O  0.17895035  0.01928014  0.34334068    -0.82800
O586        O  0.12540015  0.98451390  0.35897373    -0.85500
C587        C  0.10298539  0.97773532  0.36942825     1.02200
O588        O  0.10292464  0.98935273  0.38859275    -0.78300
O589        O  0.11313944  0.03927953  0.37168890    -0.78400
C590        C  0.12586675  0.06394891  0.36449272     1.02200
Cr591      Cr  0.17985194  0.06686954  0.36931335     1.93700
Cr592      Cr  0.16157895  0.00579662  0.37551071     1.93200
Cr593      Cr  0.12830336  0.02862092  0.39829043     1.39100
O594        O  0.15665657  0.03378220  0.38111658    -1.23500
O595        O  0.82163233  0.92906012  0.58276069    -0.85800
O596        O  0.82705886  0.97795864  0.56823498    -0.82800
C597        C  0.82704026  0.00019297  0.56861609     0.97700
O598        O  0.82649247  0.01084928  0.58825163    -0.82800
O599        O  0.77423821  0.97325605  0.60559916    -0.85500
C600        C  0.75493906  0.95075693  0.61404592     1.02200
O601        O  0.76026256  0.93630245  0.62765321    -0.78200
O602        O  0.77944144  0.91214801  0.59637155    -0.78400
C603        C  0.79611419  0.91122988  0.58191612     1.02200
O604        O  0.85906693  0.95749578  0.62057918    -0.85800
O605        O  0.86855728  0.00681457  0.60393362    -0.82800
C606        C  0.87018429  0.01861681  0.62345919     0.97700
O607        O  0.84864526  0.01338080  0.63469306    -0.82800
O608        O  0.79574132  0.98048553  0.65249098    -0.85500
C609        C  0.80084330  0.96683822  0.66706921     1.02200
O610        O  0.80495652  0.94815103  0.65978123    -0.78300
O611        O  0.82071482  0.91933663  0.63000652    -0.78400
C612        C  0.84688667  0.93347485  0.62916990     1.02200
Cr613      Cr  0.84203721  0.96758935  0.59520051     1.93700
Cr614      Cr  0.81155235  0.99239845  0.61979684     1.93200
Cr615      Cr  0.79290804  0.93140036  0.62763159     1.39100
O616        O  0.81536869  0.96367747  0.61408910    -1.23500
O617        O  0.87811786  0.80508654  0.40055159    -0.85800
O618        O  0.82424291  0.76935544  0.39036795    -0.82800
C619        C  0.79877270  0.76044059  0.39078471     0.97700
O620        O  0.78939614  0.77521330  0.38351357    -0.82800
O621        O  0.79947326  0.81274389  0.41905386    -0.85500
C622        C  0.81346326  0.83201323  0.43347087     1.02200
O623        O  0.83770713  0.85092993  0.42813461    -0.78200
O624        O  0.86616044  0.82366884  0.42892276    -0.78400
C625        C  0.87758121  0.81069895  0.42233820     1.02200
O626        O  0.88339562  0.83410484  0.35666179    -0.85800
O627        O  0.82976083  0.79447102  0.34438654    -0.82800
C628        C  0.81988901  0.80832396  0.33614186     0.97700
O629        O  0.81314663  0.82137376  0.34989693    -0.82800
O630        O  0.82082599  0.85780954  0.38447889    -0.85500
C631        C  0.84502672  0.87807131  0.38007100     1.02200
O632        O  0.86601902  0.87686755  0.38497413    -0.78300
O633        O  0.89984988  0.85652802  0.38998914    -0.78400
C634        C  0.90342292  0.85209368  0.36864062     1.02200
Cr635      Cr  0.85280981  0.80219053  0.37392719     1.93700
Cr636      Cr  0.80815233  0.81701185  0.38448082     1.93200
Cr637      Cr  0.86554666  0.84997815  0.40669487     1.39100
O638        O  0.84191734  0.82286776  0.38832953    -1.23500
O639        O  0.06199137  0.90744309  0.58053831    -0.85800
O640        O  0.01256181  0.86397446  0.56431673    -0.82800
C641        C  0.99027985  0.84085309  0.56388548     0.97700
O642        O  0.97967493  0.82773845  0.58300262    -0.82800
O643        O  0.01582694  0.81185954  0.59744702    -0.85500
C644        C  0.03883976  0.81550834  0.60381112     1.02200
O645        O  0.05378685  0.83433601  0.61854675    -0.78200
O646        O  0.07732283  0.88023429  0.58987391    -0.78400
C647        C  0.07850109  0.89909713  0.57712205     1.02200
O648        O  0.03387881  0.91213629  0.62080313    -0.85800
O649        O  0.98433565  0.87315876  0.60219418    -0.82800
C650        C  0.97214554  0.86133285  0.62124637     0.97700
O651        O  0.97693133  0.84422202  0.63102309    -0.82800
O652        O  0.00920381  0.82381503  0.64580508    -0.85500
C653        C  0.02280875  0.84241138  0.66101087     1.02200
O654        O  0.04358865  0.86514414  0.65462998    -0.78300
O655        O  0.07209112  0.91234018  0.62711676    -0.78400
C656        C  0.05812119  0.92396323  0.62874711     1.02200
Cr657      Cr  0.02345162  0.88728928  0.59315331     1.93700
Cr658      Cr  0.99753031  0.82925868  0.61400903     1.93200
Cr659      Cr  0.05930053  0.87215270  0.62183717     1.39100
O660        O  0.02682425  0.86281274  0.60956523    -1.23500
O661        O  0.91595526  0.83037834  0.91464382    -0.85800
O662        O  0.96542113  0.83736281  0.92924592    -0.82800
C663        C  0.98757315  0.83715344  0.92899483     0.97700
O664        O  0.99771446  0.83541803  0.90943966    -0.82800
O665        O  0.95938751  0.78320298  0.89210201    -0.85500
C666        C  0.93653170  0.76420967  0.88400917     1.02200
O667        O  0.92346677  0.76983974  0.86913360    -0.78200
O668        O  0.89905329  0.78840454  0.90050069    -0.78400
C669        C  0.89789960  0.80489394  0.91491216     1.02200
O670        O  0.94347741  0.86823885  0.87677282    -0.85800
O671        O  0.99337641  0.87837723  0.89276914    -0.82800
C672        C  0.00569414  0.87961434  0.87359296     0.97700
O673        O  0.00106445  0.85796655  0.86306030    -0.82800
O674        O  0.96821963  0.80635567  0.84483969    -0.85500
C675        C  0.95538429  0.81265088  0.83035188     1.02200
O676        O  0.93544772  0.81494183  0.83743218    -0.78300
O677        O  0.90575476  0.82960358  0.86754784    -0.78400
C678        C  0.91913707  0.85570560  0.86894105     1.02200
Cr679      Cr  0.95436152  0.85150992  0.90199345     1.93700
Cr680      Cr  0.97941743  0.82085628  0.87783314     1.93200
Cr681      Cr  0.91847101  0.80233636  0.86946454     1.39100
O682        O  0.95070315  0.82488765  0.88320459    -1.23500
O683        O  0.11025068  0.91605991  0.08974478    -0.85800
O684        O  0.15540689  0.93976329  0.11985481    -0.82800
C685        C  0.17469647  0.95268430  0.10486601     0.97700
O686        O  0.17868737  0.97492020  0.09585800    -0.82800
O687        O  0.16536123  0.01331631  0.08028872    -0.85500
C688        C  0.15180609  0.00288343  0.06141159     1.02200
O689        O  0.12834876  0.98107301  0.06219547    -0.78200
O690        O  0.08432638  0.93249992  0.07891571    -0.78400
C691        C  0.09195521  0.91525741  0.07641204     1.02200
O692        O  0.07815895  0.92311563  0.12553031    -0.85800
O693        O  0.12472567  0.95243381  0.15304514    -0.82800
C694        C  0.14834493  0.97164401  0.15943144     0.97700
O695        O  0.16748144  0.98402673  0.14423391    -0.82800
O696        O  0.14919908  0.01757836  0.12808766    -0.85500
C697        C  0.13235077  0.02283088  0.11845123     1.02200
O698        O  0.12015883  0.01074496  0.09954049    -0.78300
O699        O  0.07970365  0.96175445  0.11843021    -0.78400
C700        C  0.06716466  0.93760816  0.12675873     1.02200
Cr701      Cr  0.11805717  0.93513320  0.12118964     1.93700
Cr702      Cr  0.16287773  0.99549021  0.11172082     1.93200
Cr703      Cr  0.10493022  0.97125180  0.09096025     1.39100
O704        O  0.12868889  0.96725655  0.10773796    -1.23500
O705        O  0.15347223  0.09770724  0.91462664    -0.85800
O706        O  0.14760774  0.14000733  0.93240168    -0.82800
C707        C  0.14735895  0.16216536  0.93324019     0.97700
O708        O  0.14796687  0.17433416  0.91416837    -0.82800
O709        O  0.19988137  0.19252324  0.89572319    -0.85500
C710        C  0.21967863  0.19089937  0.88720191     1.02200
O711        O  0.21521717  0.17197061  0.87264018    -0.78200
O712        O  0.19592655  0.12677969  0.90281786    -0.78400
C713        C  0.17905726  0.10719201  0.91604068     1.02200
O714        O  0.11682245  0.08989083  0.87721060    -0.85800
O715        O  0.10637452  0.12739053  0.89758821    -0.82800
C716        C  0.10378963  0.13715079  0.87838122     0.97700
O717        O  0.12488625  0.15510660  0.86721931    -0.82800
O718        O  0.17685013  0.17823326  0.84837541    -0.85500
C719        C  0.17357685  0.16005896  0.83341726     1.02200
O720        O  0.17201917  0.13805241  0.83996890    -0.78300
O721        O  0.15565264  0.09231740  0.86782136    -0.78400
C722        C  0.12947992  0.07947486  0.86757507     1.02200
Cr723      Cr  0.13310081  0.11564173  0.90415868     1.93700
Cr724      Cr  0.16234439  0.17287029  0.88169142     1.93200
Cr725      Cr  0.18306976  0.13299289  0.87183627     1.39100
O726        O  0.15964271  0.14057910  0.88589893    -1.23500
O727        O  0.88128649  0.06151757  0.92286802    -0.85800
O728        O  0.83451884  0.01301916  0.93695336    -0.82800
C729        C  0.81141475  0.99077985  0.93602698     0.97700
O730        O  0.80004356  0.98126637  0.91614599    -0.82800
O731        O  0.78941042  0.02094016  0.89930126    -0.85500
C732        C  0.79459778  0.04395585  0.89113067     1.02200
O733        O  0.81500855  0.05755439  0.87720287    -0.78200
O734        O  0.85866436  0.08019513  0.90862177    -0.78400
C735        C  0.87548695  0.08022268  0.92322709     1.02200
O736        O  0.88909314  0.03274835  0.88513073    -0.85800
O737        O  0.84579546  0.98380158  0.90120401    -0.82800
C738        C  0.83611335  0.97270188  0.88131595     0.97700
O739        O  0.82068562  0.97861462  0.86990511    -0.82800
O740        O  0.80389730  0.01319343  0.85201180    -0.85500
C741        C  0.82401644  0.02609594  0.83782677     1.02200
O742        O  0.84732005  0.04434664  0.84554527    -0.78300
O743        O  0.89179566  0.07143558  0.87534521    -0.78400
C744        C  0.90236829  0.05651745  0.87606015     1.02200
Cr745      Cr  0.86099680  0.02317427  0.91019183     1.93700
Cr746      Cr  0.80582132  0.00049148  0.88482235     1.93200
Cr747      Cr  0.85209068  0.06092026  0.87753925     1.39100
O748        O  0.83964904  0.02833875  0.89102642    -1.23500
O749        O  0.07141838  0.20564657  0.09515372    -0.85800
O750        O  0.04657810  0.22567832  0.12509809    -0.82800
C751        C  0.03307927  0.22990173  0.10954218     0.97700
O752        O  0.01093056  0.20997080  0.10138959    -0.82800
O753        O  0.97298132  0.15723311  0.08651867    -0.85500
C754        C  0.98374453  0.15586773  0.06722521     1.02200
O755        O  0.00588648  0.15566096  0.06745000    -0.78200
O756        O  0.05509393  0.16299613  0.08297907    -0.78400
C757        C  0.07252757  0.18857113  0.08135633     1.02200
O758        O  0.06490226  0.16624209  0.13015778    -0.85800
O759        O  0.03466252  0.18168803  0.15869861    -0.82800
C760        C  0.01528812  0.18519771  0.16516357     0.97700
O761        O  0.00258564  0.19077021  0.14995576    -0.82800
O762        O  0.96967887  0.13712725  0.13378718    -0.85500
C763        C  0.96443576  0.11511615  0.12342461     1.02200
O764        O  0.97727426  0.11581936  0.10472358    -0.78300
O765        O  0.02721811  0.12692458  0.12206017    -0.78400
C766        C  0.05151672  0.14007575  0.12999221     1.02200
Cr767      Cr  0.05201167  0.19321047  0.12654758     1.93700
Cr768      Cr  0.99116578  0.17362482  0.11761789     1.93200
Cr769      Cr  0.01654752  0.14239675  0.09558083     1.39100
O770        O  0.01996854  0.16970551  0.11319062    -1.23500
O771        O  0.77460773  0.86405535  0.09151942    -0.85800
O772        O  0.75567958  0.81941353  0.12182996    -0.82800
C773        C  0.75143388  0.80141057  0.10631297     0.97700
O774        O  0.77114544  0.79945513  0.09821718    -0.82800
O775        O  0.82314493  0.81662531  0.08142069    -0.85500
C776        C  0.82308860  0.82814830  0.06221171     1.02200
O777        O  0.82329389  0.85050242  0.06275225    -0.78200
O778        O  0.81683294  0.89265924  0.07877138    -0.78400
C779        C  0.79114264  0.88294482  0.07757024     1.02200
O780        O  0.81492511  0.89961591  0.12585596    -0.85800
O781        O  0.79943556  0.85389150  0.15462873    -0.82800
C782        C  0.79678609  0.83138961  0.16143765     0.97700
O783        O  0.79229891  0.81289340  0.14633751    -0.82800
O784        O  0.84498799  0.83581277  0.12843122    -0.85500
C785        C  0.86641486  0.85383882  0.11763728     1.02200
O786        O  0.86453592  0.86410330  0.09836742    -0.78300
O787        O  0.85398164  0.90246324  0.11666148    -0.78400
C788        C  0.84112874  0.91312178  0.12540279     1.02200
Cr789      Cr  0.78778702  0.85857542  0.12263176     1.93700
Cr790      Cr  0.80800263  0.81839102  0.11332357     1.93200
Cr791      Cr  0.83772257  0.87555173  0.09043293     1.39100
O792        O  0.81119809  0.85091038  0.10884148    -1.23500
C793        C  0.85687462  0.94246325  0.13264626    -0.01700
C794        C  0.88400264  0.95430020  0.14078785    -0.09700
C795        C  0.90067900  0.98282015  0.14396258    -0.18600
C796        C  0.89097694  0.00064054  0.13828008     0.03800
C797        C  0.86329093  0.98847867  0.13025322     0.18000
C798        C  0.84632253  0.95959653  0.12819402    -0.20000
C799        C  0.85325552  0.00526736  0.12296877    -0.21200
C800        C  0.87059828  0.03387580  0.12219939    -0.19800
C801        C  0.89814248  0.04645579  0.12946679     0.19400
C802        C  0.90831569  0.03007410  0.13871106     0.01500
C803        C  0.93583944  0.04384887  0.14698555    -0.14500
C804        C  0.95332705  0.07223904  0.14381245    -0.12200
C805        C  0.94387264  0.08783255  0.13281074     0.01100
C806        C  0.91604068  0.07514320  0.12643032    -0.24400
H807        H  0.89262644  0.94146300  0.14413433     0.09100
H808        H  0.92151990  0.99035604  0.14970484     0.12600
H809        H  0.82552011  0.95060547  0.12136700     0.11400
H810        H  0.83218843  0.99615235  0.11680011     0.12600
H811        H  0.86256567  0.04620502  0.11542019     0.11600
H812        H  0.94470316  0.03315575  0.15533412     0.08700
H813        H  0.97484441  0.08186241  0.14882123     0.11900
H814        H  0.90880727  0.08725807  0.11771883     0.13800
C815        C  0.78166669  0.89530207  0.06006040    -0.01700
C816        C  0.76859978  0.88100738  0.03931057    -0.09700
C817        C  0.76756987  0.89527093  0.01945863    -0.18600
C818        C  0.78010832  0.92441755  0.01984770     0.03800
C819        C  0.79126571  0.93828674  0.04172620     0.18000
C820        C  0.79178821  0.92363303  0.06153403    -0.20000
C821        C  0.80376025  0.96700030  0.04326131    -0.21200
C822        C  0.80758703  0.98262186  0.02304418    -0.19800
C823        C  0.79886238  0.96986242  0.00086745     0.19400
C824        C  0.78384529  0.94051777  0.99907439     0.01500
C825        C  0.77476314  0.92873472  0.97631769    -0.14500
C826        C  0.78231524  0.94534241  0.95607241    -0.12200
C827        C  0.79913104  0.97414369  0.95778457     0.01100
C828        C  0.80642225  0.98632358  0.98031735    -0.24400
H829        H  0.76097336  0.85911560  0.03786978     0.09100
H830        H  0.75820909  0.88313577  0.00373424     0.12600
H831        H  0.80213774  0.93467002  0.07762880     0.11400
H832        H  0.81187447  0.97758688  0.06000894     0.12600
H833        H  0.81851286  0.00492567  0.02461456     0.11600
H834        H  0.76260290  0.90674262  0.97347843     0.08700
H835        H  0.77619148  0.93542999  0.93885273     0.11900
H836        H  0.81905726  0.00863116  0.98179645     0.13800
C837        C  0.96922126  0.15255219  0.04461052    -0.01700
C838        C  0.98292854  0.15680687  0.02283523    -0.09700
C839        C  0.96852576  0.15095068  0.00148107    -0.18600
C840        C  0.93963229  0.13988561  0.00129854     0.03800
C841        C  0.92596076  0.13615967  0.02346067     0.18000
C842        C  0.94091052  0.14316747  0.04472775    -0.20000
C843        C  0.89720979  0.12392947  0.02439407    -0.21200
C844        C  0.88146784  0.11343522  0.00393582    -0.19800
C845        C  0.89420274  0.11579094  0.98196632     0.19400
C846        C  0.92355340  0.13045615  0.98013899     0.01500
C847        C  0.93542385  0.13352730  0.95734957    -0.14500
C848        C  0.91895831  0.11940127  0.93789735    -0.12200
C849        C  0.89030592  0.10252476  0.94043428     0.01100
C850        C  0.87783242  0.10192201  0.96210699    -0.24400
H851        H  0.00482445  0.16420217  0.02230438     0.09100
H852        H  0.98037831  0.15408228  0.98549745     0.12600
H853        H  0.93007587  0.13964215  0.06152184     0.11400
H854        H  0.88669223  0.12116905  0.04123807     0.12600
H855        H  0.85914839  0.10267874  0.00542012     0.11600
H856        H  0.95739723  0.14563238  0.95420773     0.08700
H857        H  0.92882393  0.12002112  0.92114501     0.11900
H858        H  0.85561450  0.08862202  0.96406043     0.13800
C859        C  0.09451237  0.19702610  0.06347306    -0.01700
C860        C  0.11109051  0.18547082  0.06485024    -0.09700
C861        C  0.12495458  0.18404555  0.04485217    -0.18600
C862        C  0.12197305  0.19354591  0.02254598     0.03800
C863        C  0.10747601  0.20788290  0.02181735     0.18000
C864        C  0.09394294  0.20957962  0.04228935    -0.20000
C865        C  0.10495439  0.21867926  0.00030642    -0.21200
C866        C  0.11505827  0.21412631  0.97927134    -0.19800
C867        C  0.12733496  0.19810169  0.97913668     0.19400
C868        C  0.13136655  0.18790549  0.00081042     0.01500
C869        C  0.14287584  0.17091885  0.99958539    -0.14500
C870        C  0.14879552  0.16329388  0.97772997    -0.12200
C871        C  0.14412702  0.17281557  0.95639340     0.01100
C872        C  0.13424939  0.19098861  0.95731108    -0.24400
H873        H  0.11173784  0.17569257  0.08114507     0.09100
H874        H  0.13675229  0.17423370  0.04720229     0.12600
H875        H  0.08088023  0.21830413  0.04114400     0.11400
H876        H  0.09431401  0.22996915  0.99961923     0.12600
H877        H  0.11209834  0.22213545  0.96282634     0.11600
H878        H  0.14646477  0.16221073  0.01513320     0.08700
H879        H  0.15656623  0.14939330  0.97753409     0.11900
H880        H  0.13039546  0.19837930  0.94090705     0.13800
C881        C  0.93131541  0.06787000  0.86828383    -0.01700
C882        C  0.94817440  0.09589438  0.86240884    -0.09700
C883        C  0.97664895  0.10781193  0.85926783    -0.18600
C884        C  0.98919807  0.09199330  0.86217220     0.03800
C885        C  0.97166243  0.06318071  0.86653609     0.18000
C886        C  0.94311191  0.05145976  0.86929964    -0.20000
C887        C  0.98282311  0.04642618  0.86951647    -0.21200
C888        C  0.01119028  0.05793649  0.86988611    -0.19800
C889        C  0.02899496  0.08643173  0.86719264     0.19400
C890        C  0.01847076  0.10385533  0.86235642     0.01500
C891        C  0.03776044  0.13251202  0.85928346    -0.14500
C892        C  0.06607382  0.14354245  0.86288511    -0.12200
C893        C  0.07567044  0.12629141  0.86957256     0.01100
C894        C  0.05724737  0.09775832  0.87071027    -0.24400
H895        H  0.93955299  0.10901893  0.86128748     0.09100
H896        H  0.98838689  0.12963410  0.85551825     0.12600
H897        H  0.93030680  0.02974271  0.87367455     0.11400
H898        H  0.96957133  0.02444197  0.87262282     0.12600
H899        H  0.01924888  0.04459684  0.87323987     0.11600
H900        H  0.03152091  0.14698985  0.85494678     0.15900
H901        H  0.08020428  0.16566853  0.86176923     0.11900
H902        H  0.06484470  0.08438479  0.87560402     0.13800
C903        C  0.03833162  0.92520551  0.13516496    -0.01700
C904        C  0.02177194  0.89666116  0.13911243    -0.09700
C905        C  0.99308475  0.88391546  0.14130710    -0.18600
C906        C  0.98010715  0.89943047  0.13919139     0.03800
C907        C  0.99733987  0.92865227  0.13716992     0.18000
C908        C  0.02608106  0.94119616  0.13568584    -0.20000
C909        C  0.98580582  0.94514325  0.13488853    -0.21200
C910        C  0.95749700  0.93314156  0.13269700    -0.19800
C911        C  0.94010604  0.90441643  0.13309047     0.19400
C912        C  0.95084040  0.88705745  0.13738811     0.01500
C913        C  0.93186987  0.85811390  0.13831920    -0.14500
C914        C  0.90380034  0.84696048  0.13330823    -0.12200
C915        C  0.89416214  0.86436737  0.12721637     0.01100
C916        C  0.91214987  0.89296381  0.12798268    -0.24400
H917        H  0.03079723  0.88385110  0.13911177     0.09100
H918        H  0.98155732  0.86177935  0.14337641     0.12600
H919        H  0.03875356  0.96335132  0.13303255     0.11400
H920        H  0.99885602  0.96742543  0.13361845     0.12600
H921        H  0.94923239  0.94639330  0.12983046     0.11600
H922        H  0.93823941  0.84361435  0.14216367     0.08700
H923        H  0.88996005  0.82475049  0.13298928     0.11900
H924        H  0.90447288  0.90641502  0.12361211     0.13800
C925        C  0.18776972  0.09389047  0.93318439    -0.01700
C926        C  0.17651719  0.06539364  0.93119580    -0.09700
C927        C  0.17482360  0.04975428  0.95090137    -0.18600
C928        C  0.18364764  0.06223360  0.97345694     0.03800
C929        C  0.19749716  0.09157329  0.97477774     0.18000
C930        C  0.19965278  0.10714552  0.95459656    -0.20000
C931        C  0.20725005  0.10499901  0.99657395    -0.21200
C932        C  0.20230684  0.08987718  0.01733218    -0.19800
C933        C  0.18705918  0.06096896  0.01683955     0.19400
C934        C  0.17776979  0.04665729  0.99487877     0.01500
C935        C  0.16146720  0.01743867  0.99551652    -0.14500
C936        C  0.15368496  0.00321909  0.01709462    -0.12200
C937        C  0.16250720  0.01751830  0.03862832     0.01100
C938        C  0.17987385  0.04631867  0.03833978    -0.24400
H939        H  0.16710867  0.05488579  0.91468437     0.09100
H940        H  0.16524834  0.02782869  0.94813669     0.12600
H941        H  0.20797822  0.12918268  0.95616971     0.11400
H942        H  0.21801949  0.12733037  0.99768622     0.12600
H943        H  0.20950372  0.10087963  0.03402509     0.11600
H944        H  0.15347702  0.00501170  0.97972550     0.08700
H945        H  0.14032646  0.98093209  0.01695335     0.11900
H946        H  0.18650315  0.05753289  0.05499762     0.13800
C947        C  0.12520648  0.04206392  0.12915385    -0.01700
C948        C  0.09942311  0.03103059  0.14025045    -0.09700
C949        C  0.08821527  0.04747065  0.14490164    -0.18600
C950        C  0.10237914  0.07558625  0.13808482     0.03800
C951        C  0.12950260  0.08715149  0.12842167     0.18000
C952        C  0.14064729  0.07032830  0.12403267    -0.20000
C953        C  0.14467026  0.11505617  0.12194687    -0.21200
C954        C  0.13303741  0.13142388  0.12375756    -0.19800
C955        C  0.10576831  0.12019991  0.13171728     0.19400
C956        C  0.09011912  0.09221414  0.13932398     0.01500
C957        C  0.06233420  0.08167090  0.14640257    -0.14500
C958        C  0.05016618  0.09766002  0.14446448    -0.12200
C959        C  0.06545177  0.12491974  0.13627035     0.01100
C960        C  0.09355869  0.13638521  0.13082942    -0.24400
H961        H  0.08720597  0.00914960  0.14423983     0.09100
H962        H  0.06802700  0.03731693  0.15306054     0.12600
H963        H  0.16049177  0.07880006  0.11516780     0.11400
H964        H  0.16542308  0.12410901  0.11480749     0.12600
H965        H  0.14510578  0.15276014  0.11798939     0.11600
H966        H  0.04905573  0.06074109  0.15244716     0.08700
H967        H  0.02844156  0.08839932  0.14877297     0.11900
H968        H  0.10546405  0.15738573  0.12418699     0.13800
C969        C  0.82471541  0.81647674  0.03911983    -0.01700
C970        C  0.83004293  0.79492890  0.03812851    -0.09700
C971        C  0.83558088  0.78661992  0.01644545    -0.18600
C972        C  0.83624085  0.79992030  0.99502361     0.03800
C973        C  0.82870013  0.82027774  0.99601384     0.18000
C974        C  0.82284487  0.82814228  0.01785713    -0.20000
C975        C  0.82863384  0.83391442  0.97538434    -0.21200
C976        C  0.83815529  0.82951606  0.95406747    -0.19800
C977        C  0.84794401  0.81139844  0.95295766     0.19400
C978        C  0.84600354  0.79532158  0.97303691     0.01500
C979        C  0.85607575  0.77713157  0.97062041    -0.14500
C980        C  0.87070494  0.77773618  0.95022555    -0.12200
C981        C  0.87495591  0.79593002  0.93173956     0.01100
C982        C  0.86194995  0.81119225  0.93250565    -0.24400
H983        H  0.83106203  0.78516435  0.05427964     0.09100
H984        H  0.84029942  0.77049799  0.01714313     0.12600
H985        H  0.81814876  0.84442079  0.01836596     0.11400
H986        H  0.82245555  0.84909315  0.97597533     0.12600
H987        H  0.83925306  0.84147927  0.93865254     0.11600
H988        H  0.85454314  0.76357321  0.98471605     0.08700
H989        H  0.88061586  0.76573772  0.94977165     0.11900
H990        H  0.86517460  0.82513528  0.91796844     0.13800
C991        C  0.90529161  0.87137685  0.86395362    -0.01700
C992        C  0.87634764  0.85807922  0.86441463    -0.09700
C993        C  0.86319081  0.87328175  0.86385367    -0.18600
C994        C  0.87866280  0.90248314  0.86281961     0.03800
C995        C  0.90796191  0.91570895  0.86118093     0.18000
C996        C  0.92086018  0.90018553  0.86171661    -0.20000
C997        C  0.92441151  0.94450056  0.85992535    -0.21200
C998        C  0.91256096  0.96060975  0.86127139    -0.19800
C999        C  0.88397875  0.94837476  0.86398346     0.19400
C1000       C  0.86639623  0.91914989  0.86426093     0.01500
C1001       C  0.83755823  0.90815559  0.86695462    -0.14500
C1002       C  0.82703450  0.92553715  0.87077999    -0.12200
C1003       C  0.84488235  0.95419352  0.87170103     0.01100
C1004       C  0.87309397  0.96537883  0.86755215    -0.24400
H1005       H  0.86377285  0.83584127  0.86630426     0.09100
H1006       H  0.84094306  0.86167310  0.86489658     0.12600
H1007       H  0.94323216  0.91071392  0.86128158     0.11400
H1008       H  0.94670206  0.95469191  0.85847219     0.12600
H1009       H  0.92594042  0.98287451  0.86079537     0.11600
H1010       H  0.82280217  0.88624258  0.86704801     0.08700
H1011       H  0.80516376  0.91653241  0.87423646     0.11900
H1012       H  0.88688733  0.98756857  0.86832238     0.13800
C1013       C  0.07806339  0.89411690  0.05790835    -0.01700
C1014       C  0.09258047  0.89397683  0.03778202    -0.09700
C1015       C  0.07838750  0.88041661  0.01701679    -0.18600
C1016       C  0.04916994  0.86693715  0.01585075     0.03800
C1017       C  0.03467250  0.86545463  0.03706044     0.18000
C1018       C  0.04916635  0.87880723  0.05775719    -0.20000
C1019       C  0.00585079  0.85235260  0.03712532    -0.21200
C1020       C  0.99110464  0.84233684  0.01617567    -0.19800
C1021       C  0.00480975  0.84506441  0.99467195     0.19400
C1022       C  0.03390446  0.85644272  0.99425105     0.01500
C1023       C  0.04647798  0.85805345  0.97202809    -0.14500
C1024       C  0.03111280  0.85047828  0.95103686    -0.12200
C1025       C  0.00279081  0.84106355  0.95145129     0.01100
C1026       C  0.98966062  0.83757505  0.97345226    -0.24400
H1027       H  0.11496407  0.90606813  0.03753103     0.09100
H1028       H  0.09087986  0.88207305  0.00185908     0.12600
H1029       H  0.03796338  0.87914468  0.07334953     0.11400
H1030       H  0.99471388  0.85088345  0.05333070     0.12600
H1031       H  0.96889763  0.83327701  0.01667129     0.11600
H1032       H  0.06825970  0.86579326  0.97022127     0.08700
H1033       H  0.04175298  0.85313228  0.93429157     0.11900
H1034       H  0.96768457  0.82989400  0.97402255     0.13800
C1035       C  0.02479970  0.90697260  0.86365509    -0.01700
C1036       C  0.05302127  0.91701255  0.86135552    -0.09700
C1037       C  0.07148103  0.94503056  0.85654069    -0.18600
C1038       C  0.06192686  0.96360794  0.85406716     0.03800
C1039       C  0.03290803  0.95246810  0.85451355     0.18000
C1040       C  0.01477523  0.92443318  0.85925857    -0.20000
C1041       C  0.02214529  0.96960410  0.85174352    -0.21200
C1042       C  0.03964912  0.99802469  0.85049583    -0.19800
C1043       C  0.06825108  0.00986499  0.85207776     0.19400
C1044       C  0.07994634  0.99290391  0.85284715     0.01500
C1045       C  0.10905186  0.00612828  0.85405235    -0.14500
C1046       C  0.12548203  0.03473009  0.85696953    -0.12200
C1047       C  0.11344555  0.05092510  0.85848727     0.01100
C1048       C  0.08504480  0.03855394  0.85462209    -0.24400
H1049       H  0.06093833  0.90354729  0.86460219     0.09100
H1050       H  0.09307823  0.95169655  0.85583328     0.12600
H1051       H  0.99277047  0.91638070  0.86081310     0.11400
H1052       H  0.00001010  0.96106612  0.85165111     0.12600
H1053       H  0.03068874  0.01087238  0.84947874     0.11600
H1054       H  0.11959287  0.99486002  0.85397843     0.08700
H1055       H  0.14748812  0.04391495  0.85957489     0.11900
H1056       H  0.07567443  0.05106595  0.85523287     0.13800
C1057       C  0.01304252  0.83750321  0.68594681    -0.01700
C1058       C  0.98464638  0.82077142  0.69052985    -0.09700
C1059       C  0.97421256  0.81695158  0.71360329    -0.18600
C1060       C  0.99200553  0.82940115  0.73313269     0.03800
C1061       C  0.02094976  0.84560189  0.72852759     0.18000
C1062       C  0.03114146  0.85003520  0.70502876    -0.20000
C1063       C  0.03950091  0.85701522  0.74743040    -0.21200
C1064       C  0.02997579  0.85222002  0.77081076    -0.19800
C1065       C  0.00160959  0.83669282  0.77585532     0.19400
C1066       C  0.98214601  0.82581574  0.75708138     0.01500
C1067       C  0.95368653  0.81199564  0.76313530    -0.14500
C1068       C  0.94499366  0.80821673  0.78687159    -0.12200
C1069       C  0.96427282  0.81750247  0.80523087     0.01100
C1070       C  0.99254873  0.83195393  0.79961148    -0.24400
H1071       H  0.97022251  0.81098938  0.67605168     0.09100
H1072       H  0.95215365  0.80372657  0.71559762     0.12600
H1073       H  0.05315635  0.86284930  0.70161098     0.11400
H1074       H  0.06156710  0.86929655  0.74412984     0.12600
H1075       H  0.04490920  0.86086767  0.78506125     0.11600
H1076       H  0.93766468  0.80419811  0.74993609     0.08700
H1077       H  0.92308769  0.79744858  0.79090137     0.11900
H1078       H  0.00756973  0.83988706  0.81384199     0.13800
C1079       C  0.81636997  0.81005645  0.31020415    -0.01700
C1080       C  0.81467737  0.79023712  0.29422193    -0.09700
C1081       C  0.81109837  0.79239982  0.26982874    -0.18600
C1082       C  0.80951352  0.81482594  0.26062294     0.03800
C1083       C  0.81194391  0.83514230  0.27695296     0.18000
C1084       C  0.81504576  0.83244956  0.30130883    -0.20000
C1085       C  0.81137015  0.85819757  0.26895231    -0.21200
C1086       C  0.80831708  0.86157999  0.24497978    -0.19800
C1087       C  0.80541745  0.84183117  0.22838832     0.19400
C1088       C  0.80580067  0.81805497  0.23590993     0.01500
C1089       C  0.80233192  0.79861189  0.21834644    -0.14500
C1090       C  0.79894164  0.80279271  0.19441478    -0.12200
C1091       C  0.79896488  0.82646443  0.18706098     0.01100
C1092       C  0.80217433  0.84584743  0.20426258    -0.24400
H1093       H  0.81580500  0.77284059  0.30062004     0.09100
H1094       H  0.80982698  0.77633399  0.25861255     0.12600
H1095       H  0.81683149  0.84821969  0.31342859     0.11400
H1096       H  0.81338465  0.87382000  0.28134658     0.12600
H1097       H  0.80806761  0.87973962  0.23939114     0.11600
H1098       H  0.80209074  0.77994775  0.22255457     0.08700
H1099       H  0.79659656  0.78746710  0.18155090     0.11900
H1100       H  0.80224255  0.86424164  0.19887683     0.13800
C1101       C  0.97513636  0.82997483  0.54136459    -0.01700
C1102       C  0.94778614  0.80764987  0.54174605    -0.09700
C1103       C  0.93172867  0.79975614  0.52129805    -0.18600
C1104       C  0.94255913  0.81413173  0.49970447     0.03800
C1105       C  0.97103558  0.83511428  0.49889890     0.18000
C1106       C  0.98697532  0.84291297  0.51965874    -0.20000
C1107       C  0.98312356  0.84895517  0.47760579    -0.21200
C1108       C  0.96718929  0.84341078  0.45734185    -0.19800
C1109       C  0.93868254  0.82446974  0.45811359     0.19400
C1110       C  0.92593409  0.80930136  0.47922818     0.01500
C1111       C  0.89681767  0.79155120  0.47946066    -0.14500
C1112       C  0.88098465  0.79052403  0.46015601    -0.12200
C1113       C  0.89373530  0.80607487  0.43979526     0.01100
C1114       C  0.92255245  0.82208994  0.43842875    -0.24400
H1115       H  0.93829737  0.79683501  0.55816511     0.09100
H1116       H  0.91078655  0.78265000  0.52308300     0.12600
H1117       H  0.00833897  0.85977166  0.51906345     0.11400
H1118       H  0.00491035  0.86465160  0.47676579     0.12600
H1119       H  0.97700267  0.85496664  0.44126531     0.11600
H1120       H  0.88552254  0.77958359  0.49479984     0.08700
H1121       H  0.85864034  0.77843637  0.46148408     0.11900
H1122       H  0.93226646  0.83473474  0.42281075     0.13800
C1123       C  0.80212901  0.97337122  0.69254640    -0.01700
C1124       C  0.78322226  0.97953573  0.70246796    -0.09700
C1125       C  0.78565647  0.98815624  0.72607289    -0.18600
C1126       C  0.80776621  0.99172885  0.74031268     0.03800
C1127       C  0.82743224  0.98635072  0.72979738     0.18000
C1128       C  0.82400195  0.97649442  0.70636372    -0.20000
C1129       C  0.85081612  0.99156646  0.74249800    -0.21200
C1130       C  0.85525754  0.00223489  0.76539647    -0.19800
C1131       C  0.83584746  0.00684854  0.77653329     0.19400
C1132       C  0.81143768  0.00100000  0.76440151     0.01500
C1133       C  0.79153524  0.00406897  0.77712124    -0.14500
C1134       C  0.79578527  0.01255193  0.80086493    -0.12200
C1135       C  0.82027946  0.01910020  0.81236859     0.01100
C1136       C  0.84037776  0.01657274  0.80002182    -0.24400
H1137       H  0.76650718  0.97778520  0.69182871     0.09100
H1138       H  0.77049832  0.99277723  0.73241666     0.12600
H1139       H  0.83916366  0.97258963  0.69843885     0.11400
H1140       H  0.86603646  0.98781688  0.73451044     0.12600
H1141       H  0.87377121  0.00640724  0.77463816     0.11600
H1142       H  0.77209959  0.99914734  0.76946572     0.08700
H1143       H  0.77983754  0.01397576  0.81031327     0.11900
H1144       H  0.85903116  0.02090186  0.80914562     0.13800
C1145       C  0.78728615  0.88896361  0.56425455    -0.01700
C1146       C  0.76923424  0.88539176  0.54584931    -0.09700
C1147       C  0.76795416  0.87057364  0.52532570    -0.18600
C1148       C  0.78520181  0.85941197  0.52263268     0.03800
C1149       C  0.80163527  0.86128978  0.54237769     0.18000
C1150       C  0.80218875  0.87558967  0.56291378    -0.20000
C1151       C  0.81918784  0.85083976  0.54092793    -0.21200
C1152       C  0.82262815  0.84059021  0.51962290    -0.19800
C1153       C  0.80830993  0.84019487  0.49934971     0.19400
C1154       C  0.78839892  0.84833526  0.50070849     0.01500
C1155       C  0.77395049  0.84655793  0.47967268    -0.14500
C1156       C  0.78069977  0.83923013  0.45793665    -0.12200
C1157       C  0.80191567  0.83349361  0.45659697     0.01100
C1158       C  0.81497812  0.83314216  0.47743772    -0.24400
H1159       H  0.75767501  0.89575511  0.54655433     0.09100
H1160       H  0.75455443  0.86958803  0.51134746     0.12600
H1161       H  0.81616780  0.87837243  0.57722590     0.11400
H1162       H  0.83145425  0.85192202  0.55605957     0.12600
H1163       H  0.83742049  0.83392022  0.51877325     0.11600
H1164       H  0.75804835  0.85161866  0.47934612     0.08700
H1165       H  0.77038711  0.83956181  0.44191385     0.11900
H1166       H  0.83133442  0.82856331  0.47637360     0.13800
C1167       C  0.86340897  0.92110604  0.63595829    -0.01700
C1168       C  0.85155482  0.89235823  0.63616544    -0.09700
C1169       C  0.86809755  0.88075335  0.63814800    -0.18600
C1170       C  0.89719769  0.89768254  0.63984002     0.03800
C1171       C  0.90883749  0.92677796  0.64095876     0.18000
C1172       C  0.89196539  0.93807239  0.63924210    -0.20000
C1173       C  0.93744969  0.94463547  0.64252302    -0.21200
C1174       C  0.95499829  0.93441778  0.64145603    -0.19800
C1175       C  0.94433746  0.90606131  0.63905849     0.19400
C1176       C  0.91531309  0.88707395  0.63914181     0.01500
C1177       C  0.90592918  0.85852845  0.63729783    -0.14500
C1178       C  0.92457573  0.84957661  0.63344047    -0.12200
C1179       C  0.95289440  0.86878059  0.63147608     0.01100
C1180       C  0.96264585  0.89678193  0.63521756    -0.24400
H1181       H  0.82953384  0.87876029  0.63358687     0.09100
H1182       H  0.85764563  0.85854327  0.63737697     0.12600
H1183       H  0.90134201  0.96031305  0.63929253     0.11400
H1184       H  0.94640322  0.96677786  0.64364093     0.12600
H1185       H  0.97712460  0.94889838  0.64173215     0.11600
H1186       H  0.88430266  0.84277739  0.63788002     0.08700
H1187       H  0.91672895  0.82782879  0.63052342     0.11900
H1188       H  0.98464097  0.91163769  0.63374156     0.13800
C1189       C  0.17363529  0.02833773  0.30349732    -0.01700
C1190       C  0.19472836  0.02651007  0.29231105    -0.09700
C1191       C  0.19236693  0.01861295  0.26848296    -0.18600
C1192       C  0.16819403  0.01129636  0.25545398     0.03800
C1193       C  0.14679171  0.01300913  0.26718935     0.18000
C1194       C  0.15003366  0.02219204  0.29076267    -0.20000
C1195       C  0.12185495  0.00461548  0.25564973    -0.21200
C1196       C  0.11735381  0.99387182  0.23281356    -0.19800
C1197       C  0.13800253  0.99207210  0.22069561     0.19400
C1198       C  0.16404117  0.00148330  0.23152629     0.01500
C1199       C  0.18471266  0.00071905  0.21786041    -0.14500
C1200       C  0.17952176  0.99070973  0.19456294    -0.12200
C1201       C  0.15347509  0.98053112  0.18443793     0.01100
C1202       C  0.13280901  0.98118713  0.19761979    -0.24400
H1203       H  0.21299533  0.03098540  0.30212761     0.09100
H1204       H  0.20929202  0.01740250  0.26105468     0.12600
H1205       H  0.13346715  0.02307491  0.29969601     0.11400
H1206       H  0.10545003  0.00575806  0.26456264     0.12600
H1207       H  0.09760308  0.98703517  0.22451891     0.11600
H1208       H  0.20523850  0.00826832  0.22448002     0.08700
H1209       H  0.19592659  0.99086680  0.18441469     0.11900
H1210       H  0.11288867  0.97412592  0.18952533     0.13800
C1211       C  0.09909774  0.91259770  0.55813882    -0.01700
C1212       C  0.11611709  0.94135572  0.55865528    -0.09700
C1213       C  0.12893650  0.95611516  0.53801369    -0.18600
C1214       C  0.12421345  0.94243001  0.51593842     0.03800
C1215       C  0.10897596  0.91301831  0.51596730     0.18000
C1216       C  0.09680439  0.89835406  0.53711051    -0.20000
C1217       C  0.10425057  0.89851673  0.49462775    -0.21200
C1218       C  0.11278682  0.91253508  0.47307072    -0.19800
C1219       C  0.12590357  0.94136481  0.47231137     0.19400
C1220       C  0.13238469  0.95679902  0.49376969     0.01500
C1221       C  0.14502631  0.98581262  0.49202673    -0.14500
C1222       C  0.14932516  0.99866294  0.47000688    -0.12200
C1223       C  0.14192256  0.98325960  0.44897700     0.01100
C1224       C  0.13120827  0.95474049  0.45019247    -0.24400
H1225       H  0.11803940  0.95260798  0.57485971     0.09100
H1226       H  0.14119481  0.97825108  0.53975698     0.12600
H1227       H  0.08332857  0.87606013  0.53669903     0.11400
H1228       H  0.09296101  0.87613182  0.49452296     0.12600
H1229       H  0.10799456  0.90065395  0.45680329     0.11600
H1230       H  0.15082435  0.99909215  0.50733811     0.08700
H1231       H  0.15803025  0.02079973  0.46945993     0.11900
H1232       H  0.12539805  0.94268703  0.43395858     0.13800
C1233       C  0.07629311  0.95607871  0.35995059    -0.01700
C1234       C  0.06067837  0.96353832  0.34625794    -0.09700
C1235       C  0.03256569  0.94479763  0.34238486    -0.18600
C1236       C  0.01913381  0.91813589  0.35271303     0.03800
C1237       C  0.03572664  0.91016895  0.36517107     0.18000
C1238       C  0.06404557  0.92911863  0.36859241    -0.20000
C1239       C  0.02365020  0.88398298  0.37554559    -0.21200
C1240       C  0.99517720  0.86619060  0.37533497    -0.19800
C1241       C  0.97810563  0.87420614  0.36481623     0.19400
C1242       C  0.98974890  0.89986192  0.35261735     0.01500
C1243       C  0.97131593  0.90682473  0.34240074    -0.14500
C1244       C  0.94272215  0.89015991  0.34604222    -0.12200
C1245       C  0.93179956  0.86591031  0.35936529     0.01100
C1246       C  0.94940708  0.85749350  0.36785874    -0.24400
H1247       H  0.06992727  0.98447292  0.33963548     0.09100
H1248       H  0.02167328  0.95221317  0.33220850     0.12600
H1249       H  0.07615697  0.92353115  0.37945386     0.11400
H1250       H  0.03621118  0.87766530  0.38477613     0.12600
H1251       H  0.98636777  0.84651969  0.38442264     0.11600
H1252       H  0.97841660  0.92563118  0.33254220     0.08700
H1253       H  0.92926855  0.89697534  0.33953630     0.11900
H1254       H  0.94079661  0.83870183  0.37829426     0.13800
C1255       C  0.17135784  0.16470019  0.80811378    -0.01700
C1256       C  0.18785086  0.16180366  0.79121541    -0.09700
C1257       C  0.18590084  0.16664790  0.76718884    -0.18600
C1258       C  0.16673644  0.17385755  0.75936735     0.03800
C1259       C  0.14902201  0.17522116  0.77661813     0.18000
C1260       C  0.15194990  0.17131994  0.80077007    -0.20000
C1261       C  0.12835198  0.18024382  0.76965846    -0.21200
C1262       C  0.12493912  0.18411403  0.74585257    -0.19800
C1263       C  0.14271029  0.18399148  0.72853133     0.19400
C1264       C  0.16420307  0.17936729  0.73507252     0.01500
C1265       C  0.18243851  0.18086566  0.71705633    -0.14500
C1266       C  0.17894301  0.18591563  0.69347764    -0.12200
C1267       C  0.15708599  0.18939585  0.68698090     0.01100
C1268       C  0.13912444  0.18853664  0.70466531    -0.24400
H1269       H  0.20262363  0.15621913  0.79668492     0.09100
H1270       H  0.19928208  0.16410038  0.75513963     0.12600
H1271       H  0.13865831  0.17280099  0.81389784     0.11400
H1272       H  0.11455247  0.18092659  0.78270289     0.12600
H1273       H  0.10853874  0.18765316  0.74099744     0.11600
H1274       H  0.19977687  0.17851874  0.72065372     0.08700
H1275       H  0.19315518  0.18651404  0.68017438     0.11900
H1276       H  0.12228480  0.19143395  0.69986218     0.13800
C1277       C  0.17982175  0.10571167  0.43258710    -0.01700
C1278       C  0.19824231  0.11003260  0.45084080    -0.09700
C1279       C  0.19910166  0.12469788  0.47124915    -0.18600
C1280       C  0.18120458  0.13510051  0.47385767     0.03800
C1281       C  0.16446969  0.13262781  0.45417384     0.18000
C1282       C  0.16411607  0.11823274  0.43382927    -0.20000
C1283       C  0.14667231  0.14279634  0.45545176    -0.21200
C1284       C  0.14348704  0.15356645  0.47654565    -0.19800
C1285       C  0.15803604  0.15440290  0.49680797     0.19400
C1286       C  0.17787186  0.14617465  0.49562396     0.01500
C1287       C  0.19218480  0.14785666  0.51666060    -0.14500
C1288       C  0.18547819  0.15528394  0.53824984    -0.12200
C1289       C  0.16450866  0.16143353  0.53952430     0.01100
C1290       C  0.15171247  0.16204374  0.51854208    -0.24400
H1291       H  0.21055509  0.10046799  0.45005753     0.09100
H1292       H  0.21295249  0.12638528  0.48508401     0.12600
H1293       H  0.15003689  0.11504240  0.41948085     0.11400
H1294       H  0.13420296  0.14128597  0.44033121     0.12600
H1295       H  0.12867164  0.16021379  0.47727304     0.11600
H1296       H  0.20793824  0.14261322  0.51717300     0.08700
H1297       H  0.19594637  0.15500647  0.55418524     0.11900
H1298       H  0.13579766  0.16725041  0.51926965     0.13800
C1299       C  0.04211529  0.12814953  0.63739431    -0.01700
C1300       C  0.02550309  0.13973437  0.63905113    -0.09700
C1301       C  0.99684763  0.12288694  0.64161921    -0.18600
C1302       C  0.98393226  0.09379240  0.64234980     0.03800
C1303       C  0.00121553  0.08244516  0.64269980     0.18000
C1304       C  0.02993935  0.09963544  0.64051542    -0.20000
C1305       C  0.98970080  0.05385428  0.64364265    -0.21200
C1306       C  0.96131654  0.03610186  0.64243417    -0.19800
C1307       C  0.94384079  0.04655723  0.64039115     0.19400
C1308       C  0.95464673  0.07549171  0.64125012     0.01500
C1309       C  0.93572269  0.08470309  0.63951848    -0.14500
C1310       C  0.90762176  0.06602488  0.63528846    -0.12200
C1311       C  0.89780622  0.03788502  0.63278182     0.01100
C1312       C  0.91574017  0.02821271  0.63614425    -0.24400
H1313       H  0.03445509  0.16177793  0.63692347     0.09100
H1314       H  0.98530085  0.13315755  0.64188482     0.12600
H1315       H  0.04266885  0.09051885  0.63963270     0.11400
H1316       H  0.00278808  0.04513188  0.64424462     0.12600
H1317       H  0.95304199  0.01403677  0.64215420     0.11600
H1318       H  0.94214777  0.10622833  0.64049569     0.08700
H1319       H  0.89386150  0.07371971  0.63270366     0.11900
H1320       H  0.90793875  0.00631827  0.63428190     0.13800
C1321       C  0.12505333  0.09608220  0.62901812    -0.01700
C1322       C  0.09810298  0.07918842  0.63753958    -0.09700
C1323       C  0.08781219  0.05147645  0.64278979    -0.18600
C1324       C  0.10412501  0.03956013  0.63898097     0.03800
C1325       C  0.13199817  0.05723596  0.63135558     0.18000
C1326       C  0.14230616  0.08537657  0.62673366    -0.20000
C1327       C  0.14887375  0.04637639  0.62703109    -0.21200
C1328       C  0.13823214  0.01810060  0.62866872    -0.19800
C1329       C  0.11048695  0.00000618  0.63478512     0.19400
C1330       C  0.09326964  0.01053198  0.64088179     0.01500
C1331       C  0.06546077  0.99134033  0.64715959    -0.14500
C1332       C  0.05453997  0.96298408  0.64490504    -0.12200
C1333       C  0.07107648  0.95281399  0.63703508     0.01100
C1334       C  0.09938555  0.97135329  0.63330521    -0.24400
H1335       H  0.08456797  0.08728957  0.63933675     0.09100
H1336       H  0.06665561  0.03973217  0.64877827     0.12600
H1337       H  0.16309415  0.09846752  0.61982050     0.11400
H1338       H  0.17016508  0.05970999  0.62141600     0.12600
H1339       H  0.15153763  0.01022984  0.62423474     0.11600
H1340       H  0.05127477  0.99753575  0.65284418     0.08700
H1341       H  0.03270926  0.94897635  0.64831562     0.11900
H1342       H  0.11233222  0.96361828  0.62721957     0.13800
C1343       C  0.96012970  0.16100600  0.31041843    -0.01700
C1344       C  0.97120941  0.18731802  0.30042347    -0.09700
C1345       C  0.97904544  0.19206051  0.27647863    -0.18600
C1346       C  0.97674697  0.17063340  0.26180587     0.03800
C1347       C  0.96529372  0.14390198  0.27203451     0.18000
C1348       C  0.95660161  0.13923311  0.29594114    -0.20000
C1349       C  0.96345452  0.12218221  0.25858917    -0.21200
C1350       C  0.97364460  0.12661050  0.23544762    -0.19800
C1351       C  0.98532304  0.15271290  0.22493152     0.19400
C1352       C  0.98624449  0.17492365  0.23765368     0.01500
C1353       C  0.99672467  0.20041366  0.22561342    -0.14500
C1354       C  0.00641413  0.20377519  0.20218629    -0.12200
C1355       C  0.00667926  0.18221099  0.19028354     0.01100
C1356       C  0.99598489  0.15669786  0.20166904    -0.24400
H1357       H  0.97410333  0.20444665  0.31127501     0.09100
H1358       H  0.98771656  0.21292629  0.27020588     0.12600
H1359       H  0.94836657  0.11887677  0.30362927     0.11400
H1360       H  0.95471218  0.10175540  0.26623825     0.12600
H1361       H  0.97246620  0.10948911  0.22572042     0.11600
H1362       H  0.99727153  0.21796588  0.23367252     0.08700
H1363       H  0.01387833  0.22338207  0.19332958     0.11900
H1364       H  0.99524949  0.13967551  0.19209713     0.13800
C1365       C  0.82993256  0.01494370  0.54619286    -0.01700
C1366       C  0.82346143  0.00088455  0.52449547    -0.09700
C1367       C  0.82941436  0.01525114  0.50307178    -0.18600
C1368       C  0.84284815  0.04442237  0.50269626     0.03800
C1369       C  0.84855502  0.05849024  0.52481293     0.18000
C1370       C  0.84147918  0.04364111  0.54622898    -0.20000
C1371       C  0.86278249  0.08739265  0.52547768    -0.21200
C1372       C  0.87324074  0.10274448  0.50472692    -0.19800
C1373       C  0.86910545  0.08953459  0.48277779     0.19400
C1374       C  0.85263113  0.06020285  0.48131563     0.01500
C1375       C  0.84820176  0.04791225  0.45861771    -0.14500
C1376       C  0.86240444  0.06371952  0.43880378    -0.12200
C1377       C  0.88067255  0.09218677  0.44084085     0.01100
C1378       C  0.88292925  0.10528046  0.46251513    -0.24400
H1379       H  0.81430826  0.97868118  0.52406266     0.09100
H1380       H  0.82439543  0.00300259  0.48714889     0.12600
H1381       H  0.84669142  0.05469815  0.56297919     0.11400
H1382       H  0.86703178  0.09822605  0.54227928     0.12600
H1383       H  0.88542680  0.12507836  0.50594946     0.11600
H1384       H  0.83494950  0.02602056  0.45575950     0.08700
H1385       H  0.86053813  0.05338156  0.42207475     0.11900
H1386       H  0.89736184  0.12734265  0.46407507     0.13800
C1387       C  0.08184309  0.20025595  0.56181596    -0.01700
C1388       C  0.09580493  0.21776646  0.54264718    -0.09700
C1389       C  0.08116180  0.21758251  0.52255001    -0.18600
C1390       C  0.05210237  0.19948812  0.52110451     0.03800
C1391       C  0.03803136  0.18385461  0.54168004     0.18000
C1392       C  0.05292867  0.18454275  0.56171836    -0.20000
C1393       C  0.00933394  0.16599922  0.54158631    -0.21200
C1394       C  0.99442115  0.16160107  0.52088661    -0.19800
C1395       C  0.00786648  0.17490216  0.49978368     0.19400
C1396       C  0.03670293  0.19482631  0.49968930     0.01500
C1397       C  0.04900501  0.20779993  0.47781431    -0.14500
C1398       C  0.03377751  0.19970077  0.45670600    -0.12200
C1399       C  0.00583745  0.17860972  0.45672344     0.01100
C1400       C  0.99282277  0.16718441  0.47852719    -0.24400
H1401       H  0.11817750  0.23001350  0.54243185     0.09100
H1402       H  0.09325066  0.23070564  0.50798202     0.12600
H1403       H  0.04210367  0.17105688  0.57667160     0.11400
H1404       H  0.99849596  0.15438292  0.55736257     0.12600
H1405       H  0.97237791  0.14674385  0.52114529     0.11600
H1406       H  0.07057962  0.22351861  0.47631453     0.08700
H1407       H  0.04428248  0.20913438  0.44015607     0.11900
H1408       H  0.97109098  0.15120817  0.47885353     0.13800
C1409       C  0.90787033  0.04794060  0.36754543    -0.01700
C1410       C  0.92297910  0.03695451  0.35804931    -0.09700
C1411       C  0.91060260  0.00851576  0.35482556    -0.18600
C1412       C  0.88285057  0.99008031  0.36189808     0.03800
C1413       C  0.86754199  0.00143781  0.37127436     0.18000
C1414       C  0.87987674  0.03016285  0.37329130    -0.20000
C1415       C  0.84064254  0.98405495  0.37996662    -0.21200
C1416       C  0.82934653  0.95562149  0.38115339    -0.19800
C1417       C  0.84432958  0.94388129  0.37289214     0.19400
C1418       C  0.87056357  0.96083979  0.36180063     0.01500
C1419       C  0.88405932  0.94791137  0.35220327    -0.14500
C1420       C  0.87400477  0.92014771  0.35652727    -0.12200
C1421       C  0.85004413  0.90430084  0.37016549     0.01100
C1422       C  0.83420578  0.91566404  0.37696351    -0.24400
H1423       H  0.94462689  0.05037251  0.35356555     0.09100
H1424       H  0.92378659  0.00155823  0.34801866     0.12600
H1425       H  0.86820512  0.03858676  0.38100913     0.11400
H1426       H  0.82883568  0.99262299  0.38706927     0.12600
H1427       H  0.80913253  0.94284901  0.38921468     0.11600
H1428       H  0.90290059  0.95888859  0.34197844     0.08700
H1429       H  0.88595070  0.91135680  0.35027107     0.11900
H1430       H  0.81533300  0.90328305  0.38710530     0.13800
C1431       C  0.02607458  0.13453512  0.36672977    -0.01700
C1432       C  0.05457507  0.15282403  0.36504711    -0.09700
C1433       C  0.07211796  0.14289476  0.35986417    -0.18600
C1434       C  0.06139316  0.11423666  0.35652088     0.03800
C1435       C  0.03220540  0.09625150  0.35676694     0.18000
C1436       C  0.01499215  0.10656678  0.36169148    -0.20000
C1437       C  0.02031739  0.06779382  0.35359800    -0.21200
C1438       C  0.03682153  0.05641119  0.35187336    -0.19800
C1439       C  0.06557626  0.07325650  0.35312622     0.19400
C1440       C  0.07838840  0.10249512  0.35449264     0.01500
C1441       C  0.10756936  0.11846424  0.35512100    -0.14500
C1442       C  0.12311508  0.10582104  0.35660598    -0.12200
C1443       C  0.11014127  0.07695788  0.35732932     0.01100
C1444       C  0.08147136  0.06085450  0.35441763    -0.24400
H1445       H  0.06337722  0.17452260  0.36905436     0.09100
H1446       H  0.09395734  0.15793348  0.35964866     0.12600
H1447       H  0.99283286  0.09247432  0.36302831     0.11400
H1448       H  0.99805301  0.05409839  0.35348550     0.12600
H1449       H  0.02697613  0.03416688  0.35047025     0.11600
H1450       H  0.11891435  0.14071904  0.35540605     0.08700
H1451       H  0.14531015  0.11878473  0.35853584     0.11900
H1452       H  0.07128088  0.03850808  0.35456255     0.13800
C1453       C  0.48212299  0.64666928  0.11919240    -0.01700
C1454       C  0.47483172  0.61892973  0.11843812    -0.09700
C1455       C  0.46787643  0.60314688  0.13926350    -0.18600
C1456       C  0.46781232  0.61465666  0.16160275     0.03800
C1457       C  0.47731643  0.64336000  0.16239281     0.18000
C1458       C  0.48445501  0.65898022  0.14139195    -0.20000
C1459       C  0.47827186  0.65607892  0.18400160    -0.21200
C1460       C  0.46814220  0.64056821  0.20465159    -0.19800
C1461       C  0.45671471  0.61194927  0.20416529     0.19400
C1462       C  0.45719405  0.59858360  0.18290327     0.01500
C1463       C  0.44519470  0.56949770  0.18363982    -0.14500
C1464       C  0.43082268  0.55418270  0.20387303    -0.12200
C1465       C  0.42857939  0.56748278  0.22396095     0.01100
C1466       C  0.44284458  0.59640147  0.22439214    -0.24400
H1467       H  0.47330915  0.60899110  0.10157108     0.09100
H1468       H  0.46174892  0.58178443  0.13722904     0.12600
H1469       H  0.49061920  0.68057037  0.14228893     0.11400
H1470       H  0.48588688  0.67801536  0.18477370     0.12600
H1471       H  0.46808005  0.65085736  0.22090763     0.11600
H1472       H  0.44513735  0.55787823  0.16842034     0.08700
H1473       H  0.41962012  0.53182854  0.20311004     0.11900
H1474       H  0.44091590  0.60671024  0.23991882     0.13800
C1475       C  0.58508826  0.72150802  0.05764934    -0.01700
C1476       C  0.59029099  0.71167416  0.07855489    -0.09700
C1477       C  0.61727943  0.72185202  0.08621990    -0.18600
C1478       C  0.64012886  0.74221621  0.07303860     0.03800
C1479       C  0.63480521  0.75074449  0.05099487     0.18000
C1480       C  0.60747783  0.74069422  0.04370309    -0.20000
C1481       C  0.65678189  0.76964261  0.03660187    -0.21200
C1482       C  0.68396637  0.78092135  0.04395654    -0.19800
C1483       C  0.68980146  0.77423343  0.06620495     0.19400
C1484       C  0.66797860  0.75481633  0.08113737     0.01500
C1485       C  0.67490960  0.74996343  0.10400747    -0.14500
C1486       C  0.70220741  0.76453850  0.11195211    -0.12200
C1487       C  0.72341139  0.78352578  0.09711812     0.01100
C1488       C  0.71727217  0.78783308  0.07409428    -0.24400
H1489       H  0.57334610  0.69660865  0.08950406     0.09100
H1490       H  0.61956504  0.71341688  0.10256767     0.12600
H1491       H  0.60363074  0.74799950  0.02724395     0.11400
H1492       H  0.65291228  0.77594985  0.01963056     0.12600
H1493       H  0.70051038  0.79572132  0.03251263     0.11600
H1494       H  0.65959717  0.73599602  0.11656486     0.08700
H1495       H  0.70674227  0.76133744  0.12991176     0.11900
H1496       H  0.73378208  0.80305932  0.06283369     0.13800
C1497       C  0.30269593  0.48217739  0.20298418    -0.01700
C1498       C  0.27452732  0.46177274  0.20297908    -0.09700
C1499       C  0.25929319  0.45429684  0.18198853    -0.18600
C1500       C  0.27181622  0.46714381  0.16017871     0.03800
C1501       C  0.30086923  0.48616658  0.15997095     0.18000
C1502       C  0.31594649  0.49349993  0.18123738    -0.20000
C1503       C  0.31449140  0.49881579  0.13872781    -0.21200
C1504       C  0.29962334  0.49463384  0.11800751    -0.19800
C1505       C  0.27077856  0.47791563  0.11812190     0.19400
C1506       C  0.25643870  0.46308208  0.13892456     0.01500
C1507       C  0.22720026  0.44648668  0.13793466    -0.14500
C1508       C  0.21282483  0.44686746  0.11795104    -0.12200
C1509       C  0.22717604  0.46337211  0.09842057     0.01100
C1510       C  0.25607298  0.47770993  0.09811374    -0.24400
H1511       H  0.26382646  0.45237661  0.21947298     0.09100
H1512       H  0.23760251  0.43901051  0.18355325     0.12600
H1513       H  0.33784783  0.50893537  0.18096568     0.11400
H1514       H  0.33668645  0.51290432  0.13833739     0.12600
H1515       H  0.31065050  0.50564882  0.10207200     0.11600
H1516       H  0.21479793  0.43428593  0.15277323     0.08700
H1517       H  0.19045211  0.43595028  0.11850842     0.11900
H1518       H  0.26711492  0.49065892  0.08294622     0.13800
C1519       C  0.26804557  0.54199651  0.02870067    -0.01700
C1520       C  0.27951222  0.57041138  0.02569265    -0.09700
C1521       C  0.30803932  0.58810243  0.02345823    -0.18600
C1522       C  0.32612514  0.57789189  0.02478480     0.03800
C1523       C  0.31424142  0.54886711  0.02667552     0.18000
C1524       C  0.28546535  0.53125778  0.02822365    -0.20000
C1525       C  0.33115540  0.53766960  0.02825597    -0.21200
C1526       C  0.35973320  0.55478706  0.02915427    -0.19800
C1527       C  0.37207381  0.58350668  0.02846587     0.19400
C1528       C  0.35547367  0.59546086  0.02561571     0.01500
C1529       C  0.36889979  0.62456075  0.02506145    -0.14500
C1530       C  0.39713762  0.64094126  0.02912063    -0.12200
C1531       C  0.41301945  0.62906186  0.03319321     0.01100
C1532       C  0.40075253  0.60041802  0.03196326    -0.24400
H1533       H  0.26642229  0.57913128  0.02582592     0.09100
H1534       H  0.31525932  0.60973513  0.02159342     0.12600
H1535       H  0.27677125  0.50927035  0.03069495     0.11400
H1536       H  0.32217875  0.51552923  0.02958264     0.12600
H1537       H  0.37220957  0.54551858  0.03116315     0.11600
H1538       H  0.35809140  0.63535306  0.02250160     0.08700
H1539       H  0.40652008  0.66311153  0.03003433     0.11900
H1540       H  0.41314043  0.59128845  0.03538511     0.13800
C1541       C  0.11362795  0.39706053  0.06004919    -0.01700
C1542       C  0.10444119  0.37581763  0.04330057    -0.09700
C1543       C  0.08904529  0.34813819  0.05040412    -0.18600
C1544       C  0.08321460  0.34092696  0.07471895     0.03800
C1545       C  0.09328953  0.36272305  0.09162093     0.18000
C1546       C  0.10761729  0.39038182  0.08412144    -0.20000
C1547       C  0.08980269  0.35683946  0.11596080    -0.21200
C1548       C  0.07728881  0.32974386  0.12396989    -0.19800
C1549       C  0.06695409  0.30779011  0.10783452     0.19400
C1550       C  0.06875760  0.31297391  0.08297105     0.01500
C1551       C  0.05612879  0.28993110  0.06752838    -0.14500
C1552       C  0.04351994  0.26299291  0.07638967    -0.12200
C1553       C  0.04358398  0.25819346  0.10075957     0.01100
C1554       C  0.05506591  0.28064328  0.11642103    -0.24400
H1555       H  0.10915642  0.38066302  0.02462391     0.09100
H1556       H  0.08284455  0.33286090  0.03657440     0.12600
H1557       H  0.11528295  0.40685164  0.09716873     0.11400
H1558       H  0.09754589  0.37337323  0.12892202     0.12600
H1559       H  0.07565105  0.32592795  0.14293744     0.11600
H1560       H  0.05555404  0.29208814  0.04855457     0.08700
H1561       H  0.03453827  0.24582878  0.06403580     0.11900
H1562       H  0.05468708  0.27692371  0.13534843     0.13800
C1563       C  0.19649105  0.58450151  0.30262119    -0.01700
C1564       C  0.22501984  0.60201333  0.30549370    -0.09700
C1565       C  0.24229737  0.59131346  0.30666802    -0.18600
C1566       C  0.23156374  0.56259560  0.30442711     0.03800
C1567       C  0.20240738  0.54474742  0.30367813     0.18000
C1568       C  0.18518400  0.55578547  0.30295971    -0.20000
C1569       C  0.19072124  0.51608625  0.30236966    -0.21200
C1570       C  0.20742855  0.50481354  0.30047571    -0.19800
C1571       C  0.23622294  0.52194580  0.29936643     0.19400
C1572       C  0.24869457  0.55110338  0.30169336     0.01500
C1573       C  0.27770853  0.56767682  0.29949071    -0.14500
C1574       C  0.29340498  0.55599619  0.29386736    -0.12200
C1575       C  0.28108981  0.52745160  0.29101422     0.01100
C1576       C  0.25257276  0.51031409  0.29455057    -0.24400
H1577       H  0.23420981  0.62421654  0.30590113     0.09100
H1578       H  0.26403300  0.60615801  0.30861813     0.12600
H1579       H  0.16306568  0.54197756  0.30104464     0.11400
H1580       H  0.16847935  0.50231861  0.30211608     0.12600
H1581       H  0.19771457  0.48260802  0.29884849     0.11600
H1582       H  0.28882832  0.58986871  0.30079520     0.08700
H1583       H  0.31537848  0.56955637  0.29096555     0.11900
H1584       H  0.24294295  0.48822956  0.29192529     0.13800
C1585       C  0.14142573  0.49695761  0.12403870    -0.01700
C1586       C  0.11898371  0.50089028  0.12567862    -0.09700
C1587       C  0.11194652  0.50786314  0.14733525    -0.18600
C1588       C  0.12749327  0.51147889  0.16803731     0.03800
C1589       C  0.14887495  0.50537044  0.16655495     0.18000
C1590       C  0.15533770  0.49786832  0.14481084    -0.20000
C1591       C  0.16492289  0.50847510  0.18642422    -0.21200
C1592       C  0.16169477  0.51959761  0.20729168    -0.19800
C1593       C  0.14218798  0.52763334  0.20879714     0.19400
C1594       C  0.12392770  0.52264780  0.18965447     0.01500
C1595       C  0.10420944  0.53075950  0.19256668    -0.14500
C1596       C  0.10457830  0.54564951  0.21265713    -0.12200
C1597       C  0.12435624  0.55250108  0.23028470     0.01100
C1598       C  0.14212919  0.54230603  0.22879396    -0.24400
H1599       H  0.10761176  0.49991601  0.10993893     0.09100
H1600       H  0.09505632  0.51147640  0.14706930     0.12600
H1601       H  0.17243929  0.49440059  0.14382884     0.11400
H1602       H  0.18097686  0.50348954  0.18547854     0.12600
H1603       H  0.17534143  0.52299987  0.22202874     0.11600
H1604       H  0.08910998  0.52698684  0.17919984     0.08700
H1605       H  0.09064285  0.55335347  0.21364867     0.11900
H1606       H  0.15727382  0.54743050  0.24267222     0.13800
C1607       C  0.37023393  0.78384691  0.29976714    -0.01700
C1608       C  0.35830728  0.75623798  0.30672466    -0.09700
C1609       C  0.32982423  0.73967920  0.31063666    -0.18600
C1610       C  0.31214809  0.75007059  0.30700076     0.03800
C1611       C  0.32442225  0.77816534  0.30003656     0.18000
C1612       C  0.35321608  0.79486088  0.29708639    -0.20000
C1613       C  0.30779869  0.78908694  0.29493163    -0.21200
C1614       C  0.27913449  0.77232535  0.29536540    -0.19800
C1615       C  0.26637397  0.74442886  0.30162913     0.19400
C1616       C  0.28268908  0.73321682  0.30860904     0.01500
C1617       C  0.26873732  0.70527504  0.31589944    -0.14500
C1618       C  0.24009116  0.68852727  0.31390523    -0.12200
C1619       C  0.22446638  0.69908285  0.30493590     0.01100
C1620       C  0.23748705  0.72724945  0.29966071    -0.24400
H1621       H  0.37103465  0.74726372  0.30879513     0.09100
H1622       H  0.32215538  0.71851525  0.31551953     0.12600
H1623       H  0.36222313  0.81608886  0.29127101     0.11400
H1624       H  0.31702759  0.81049400  0.28962636     0.12600
H1625       H  0.26686757  0.78111392  0.29030125     0.11600
H1626       H  0.27945178  0.69552938  0.32245594     0.08700
H1627       H  0.23026470  0.66670644  0.31791159     0.11900
H1628       H  0.22539426  0.73532949  0.29239352     0.13800
C1629       C  0.52748798  0.77199175  0.10553576    -0.01700
C1630       C  0.52077932  0.79243572  0.10417555    -0.09700
C1631       C  0.52012168  0.80610351  0.12456929    -0.18600
C1632       C  0.52542953  0.79901182  0.14713795     0.03800
C1633       C  0.53494376  0.78020140  0.14803269     0.18000
C1634       C  0.53588265  0.76685748  0.12723526    -0.20000
C1635       C  0.54151137  0.77335573  0.16987038    -0.21200
C1636       C  0.53724166  0.78347919  0.19098985    -0.19800
C1637       C  0.52560912  0.80007406  0.19079726     0.19400
C1638       C  0.51992246  0.80845139  0.16884832     0.01500
C1639       C  0.50700877  0.82415022  0.16961034    -0.14500
C1640       C  0.49855758  0.82974635  0.19113707    -0.12200
C1641       C  0.50346408  0.82073878  0.21262164     0.01100
C1642       C  0.51800796  0.80688889  0.21241517    -0.24400
H1643       H  0.51404032  0.79641887  0.08748244     0.09100
H1644       H  0.51413420  0.82114516  0.12219984     0.12600
H1645       H  0.54067814  0.75067497  0.12828997     0.11400
H1646       H  0.54913916  0.75935055  0.17067629     0.12600
H1647       H  0.54177703  0.77714639  0.20764555     0.11600
H1648       H  0.50186772  0.83122912  0.15384624     0.08700
H1649       H  0.48748939  0.84062471  0.19093876     0.11900
H1650       H  0.52161339  0.79962343  0.22901422     0.13800
C1651       C  0.45641891  0.75235761  0.29812694    -0.01700
C1652       C  0.43077867  0.73614540  0.30920498    -0.09700
C1653       C  0.41963700  0.70790470  0.31233997    -0.18600
C1654       C  0.43378692  0.69502075  0.30394479     0.03800
C1655       C  0.46097074  0.71214699  0.29462812     0.18000
C1656       C  0.47196064  0.74062376  0.29162850    -0.20000
C1657       C  0.47636951  0.70051779  0.28724450    -0.21200
C1658       C  0.46488747  0.67206888  0.28790726    -0.19800
C1659       C  0.43743231  0.65456004  0.29517545     0.19400
C1660       C  0.42147148  0.66574916  0.30339033     0.01500
C1661       C  0.39331202  0.64714910  0.30906753    -0.14500
C1662       C  0.38124868  0.61878685  0.30553513    -0.12200
C1663       C  0.39699355  0.60801542  0.29705088     0.01100
C1664       C  0.42531309  0.62589684  0.29281902    -0.24400
H1665       H  0.41865376  0.74514372  0.31434047     0.09100
H1666       H  0.39961554  0.69662673  0.32075514     0.12600
H1667       H  0.49182269  0.75333137  0.28293304     0.11400
H1668       H  0.49721281  0.71345681  0.28042711     0.12600
H1669       H  0.47713722  0.66363587  0.28161016     0.11600
H1670       H  0.37968963  0.65393527  0.31504437     0.08700
H1671       H  0.35934057  0.60527727  0.30890651     0.11900
H1672       H  0.43749790  0.61766563  0.28585834     0.13800
C1673       C  0.19224772  0.94102837  0.09900771    -0.01700
C1674       C  0.19050514  0.92040696  0.11390407    -0.09700
C1675       C  0.20399616  0.90650692  0.10835941    -0.18600
C1676       C  0.21989657  0.91252184  0.08740759     0.03800
C1677       C  0.22308801  0.93444043  0.07279303     0.18000
C1678       C  0.20913554  0.94845492  0.07860557    -0.20000
C1679       C  0.23994385  0.94187690  0.05246720    -0.21200
C1680       C  0.25352310  0.92794249  0.04639076    -0.19800
C1681       C  0.24998344  0.90566471  0.06008332     0.19400
C1682       C  0.23268763  0.89745019  0.08059818     0.01500
C1683       C  0.22817427  0.87389992  0.09314803    -0.14500
C1684       C  0.24037800  0.85926800  0.08582927    -0.12200
C1685       C  0.25777581  0.86748816  0.06594702     0.01100
C1686       C  0.26289447  0.89096410  0.05316774    -0.24400
H1687       H  0.17824988  0.91458548  0.13006731     0.09100
H1688       H  0.20160637  0.89124326  0.12105808     0.12600
H1689       H  0.21087821  0.96454144  0.06702541     0.11400
H1690       H  0.24271490  0.95863589  0.04122788     0.12600
H1691       H  0.26646490  0.93430282  0.03061896     0.11600
H1692       H  0.21461794  0.86558598  0.10831265     0.08700
H1693       H  0.23589391  0.84099733  0.09574644     0.11900
H1694       H  0.27582929  0.89699673  0.03739443     0.13800
C1695       C  0.23169702  0.71119661  0.04358570    -0.01700
C1696       C  0.23333945  0.69931342  0.02228668    -0.09700
C1697       C  0.21970620  0.67041120  0.02007513    -0.18600
C1698       C  0.20405008  0.65280784  0.03922687     0.03800
C1699       C  0.20155935  0.66537601  0.06021250     0.18000
C1700       C  0.21516587  0.69403397  0.06207207    -0.20000
C1701       C  0.18662575  0.64944980  0.07984623    -0.21200
C1702       C  0.17524020  0.62116465  0.07972741    -0.19800
C1703       C  0.17844953  0.60816972  0.05992350     0.19400
C1704       C  0.19198874  0.62345967  0.03900971     0.01500
C1705       C  0.19395433  0.60876716  0.01942309    -0.14500
C1706       C  0.18502903  0.58064651  0.02140258    -0.12200
C1707       C  0.17387409  0.56663712  0.04281517     0.01100
C1708       C  0.16960665  0.58016826  0.06156513    -0.24400
H1709       H  0.24611253  0.71231505  0.00780284     0.09100
H1710       H  0.22245343  0.66245424  0.00353697     0.12600
H1711       H  0.21380623  0.70315295  0.07858588     0.11400
H1712       H  0.18467618  0.65906354  0.09580388     0.12600
H1713       H  0.16469068  0.60950149  0.09557033     0.11600
H1714       H  0.20326449  0.61870561  0.00277134     0.08700
H1715       H  0.18851312  0.57034532  0.00675144     0.11900
H1716       H  0.16085186  0.56915540  0.07811233     0.13800
C1717       C  0.15941433  0.68002918  0.21839572    -0.01700
C1718       C  0.17042197  0.70848584  0.22092566    -0.09700
C1719       C  0.17864776  0.72569470  0.20107144    -0.18600
C1720       C  0.17592050  0.71482784  0.17795578     0.03800
C1721       C  0.16175014  0.68562982  0.17537216     0.18000
C1722       C  0.15410183  0.66856131  0.19553932    -0.20000
C1723       C  0.15635439  0.67379783  0.15269631    -0.21200
C1724       C  0.16621882  0.69042898  0.13257048    -0.19800
C1725       C  0.18298820  0.71915940  0.13474605     0.19400
C1726       C  0.18791493  0.73184225  0.15747120     0.01500
C1727       C  0.20668317  0.76070265  0.15893176    -0.14500
C1728       C  0.22186013  0.77571997  0.13903558    -0.12200
C1729       C  0.21762568  0.76281338  0.11694762     0.01100
C1730       C  0.19682941  0.73500902  0.11459816    -0.24400
H1731       H  0.17408003  0.71776162  0.23840821     0.09100
H1732       H  0.18747326  0.74744376  0.20436042     0.12600
H1733       H  0.14478174  0.64643553  0.19345051     0.11400
H1734       H  0.14494943  0.65155215  0.15053238     0.12600
H1735       H  0.16213102  0.68067019  0.11527568     0.11600
H1736       H  0.21178215  0.77179452  0.17552082     0.08700
H1737       H  0.23793662  0.79721345  0.14113161     0.11900
H1738       H  0.19359566  0.72499984  0.09749031     0.13800
C1739       C  0.42368483  0.86162445  0.22508813    -0.01700
C1740       C  0.40199980  0.86646357  0.22779151    -0.09700
C1741       C  0.38852731  0.86853940  0.20782889    -0.18600
C1742       C  0.39626602  0.86536267  0.18458633     0.03800
C1743       C  0.41964700  0.86239708  0.18217630     0.18000
C1744       C  0.43303289  0.86059558  0.20232875    -0.20000
C1745       C  0.42855526  0.85950971  0.15973101    -0.21200
C1746       C  0.41376126  0.85776518  0.13959601    -0.19800
C1747       C  0.38962626  0.85870603  0.14145293     0.19400
C1748       C  0.38083213  0.86331397  0.16380449     0.01500
C1749       C  0.35604246  0.86382413  0.16443637    -0.14500
C1750       C  0.33967187  0.85777444  0.14408890    -0.12200
C1751       C  0.34784831  0.85161132  0.12263006     0.01100
C1752       C  0.37327413  0.85317926  0.12124150    -0.24400
H1753       H  0.39441074  0.86700958  0.24538139     0.09100
H1754       H  0.37145331  0.87146300  0.21115629     0.12600
H1755       H  0.44971994  0.85659153  0.20035166     0.11400
H1756       H  0.44652663  0.85755320  0.15781418     0.12600
H1757       H  0.42062088  0.85449310  0.12254343     0.11600
H1758       H  0.34812353  0.86747424  0.18059923     0.08700
H1759       H  0.31982154  0.85621603  0.14548593     0.11900
H1760       H  0.37938366  0.84806496  0.10460270     0.13800
C1761       C  0.35793023  0.79503986  0.04437841    -0.01700
C1762       C  0.38621219  0.81419859  0.04703733    -0.09700
C1763       C  0.40570639  0.80645033  0.04264975    -0.18600
C1764       C  0.39729602  0.77909868  0.03568553     0.03800
C1765       C  0.36865665  0.76040796  0.03173425     0.18000
C1766       C  0.34954607  0.76862696  0.03570303    -0.20000
C1767       C  0.35890327  0.73305466  0.02509611    -0.21200
C1768       C  0.37674536  0.72321695  0.02373332    -0.19800
C1769       C  0.40484964  0.74062555  0.02857696     0.19400
C1770       C  0.41583167  0.76907497  0.03371539     0.01500
C1771       C  0.44463246  0.78577305  0.03762769    -0.14500
C1772       C  0.46129701  0.77420142  0.03822059    -0.12200
C1773       C  0.44980753  0.74573924  0.03497499     0.01100
C1774       C  0.42177331  0.72934208  0.02931966    -0.24400
H1775       H  0.39319298  0.83477880  0.05362451     0.09100
H1776       H  0.42704676  0.82191902  0.04580687     0.12600
H1777       H  0.32771527  0.75378286  0.03317799     0.11400
H1778       H  0.33709830  0.71883243  0.02187688     0.12600
H1779       H  0.36835532  0.70161868  0.01949534     0.11600
H1780       H  0.45469518  0.80765173  0.04093941     0.08700
H1781       H  0.48297932  0.78735782  0.04250586     0.11900
H1782       H  0.41280457  0.70742142  0.02637085     0.13800
C1783       C  0.50498376  0.83638504  0.48143800    -0.01700
C1784       C  0.49217677  0.85082968  0.47470659    -0.09700
C1785       C  0.48715250  0.85311890  0.45080307    -0.18600
C1786       C  0.49535539  0.84141490  0.43272183     0.03800
C1787       C  0.50937172  0.82774704  0.43965929     0.18000
C1788       C  0.51351280  0.82486778  0.46382419    -0.20000
C1789       C  0.51929058  0.81712915  0.42243822    -0.21200
C1790       C  0.51573137  0.81988363  0.39841505    -0.19800
C1791       C  0.50141918  0.83257305  0.39101775     0.19400
C1792       C  0.49047516  0.84301959  0.40803396     0.01500
C1793       C  0.47479468  0.85418942  0.39955410    -0.14500
C1794       C  0.47058999  0.85528704  0.37520563    -0.12200
C1795       C  0.48238339  0.84595076  0.35859076     0.01100
C1796       C  0.49777988  0.83464245  0.36662914    -0.24400
H1797       H  0.48545022  0.85992104  0.48807576     0.09100
H1798       H  0.47714852  0.86447367  0.44702144     0.12600
H1799       H  0.52378618  0.81399952  0.46894499     0.11400
H1800       H  0.53014827  0.80686660  0.42757973     0.12600
H1801       H  0.52394439  0.81170888  0.38551852     0.11600
H1802       H  0.46512714  0.86179321  0.41130465     0.08700
H1803       H  0.45844351  0.86389570  0.36931853     0.11900
H1804       H  0.50647534  0.82685507  0.35380541     0.13800
C1805       C  0.72579425  0.94070482  0.60817497    -0.01700
C1806       C  0.71758625  0.95818935  0.59870728    -0.09700
C1807       C  0.69004728  0.94773183  0.59211431    -0.18600
C1808       C  0.67003492  0.91922715  0.59434339     0.03800
C1809       C  0.67866746  0.90182633  0.60418378     0.18000
C1810       C  0.70602056  0.91270135  0.61127676    -0.20000
C1811       C  0.66021459  0.87339388  0.60627468    -0.21200
C1812       C  0.63349529  0.86151837  0.59791864    -0.19800
C1813       C  0.62442831  0.87787823  0.58775523     0.19400
C1814       C  0.64209028  0.90705697  0.58646691     0.01500
C1815       C  0.63095742  0.92244172  0.57706233    -0.14500
C1816       C  0.60372065  0.90911901  0.56856515    -0.12200
C1817       C  0.58731755  0.88026996  0.56872987     0.01100
C1818       C  0.59773078  0.86495156  0.57857939    -0.24400
H1819       H  0.73252580  0.97997885  0.59625142     0.09100
H1820       H  0.68518208  0.96222667  0.58472799     0.12600
H1821       H  0.71217308  0.89894329  0.61841936     0.11400
H1822       H  0.66671516  0.86011447  0.61384769     0.12600
H1823       H  0.61987354  0.83930205  0.59922417     0.11600
H1824       H  0.64277623  0.94468242  0.57611477     0.08700
H1825       H  0.59573397  0.92127612  0.56132497     0.11900
H1826       H  0.58484922  0.84264708  0.57920710     0.13800
C1827       C  0.47988314  0.64289325  0.85424638    -0.01700
C1828       C  0.45811711  0.64159565  0.86734040    -0.09700
C1829       C  0.46198315  0.65103169  0.89081935    -0.18600
C1830       C  0.48781744  0.66173265  0.90214908     0.03800
C1831       C  0.50935030  0.66149420  0.88920227     0.18000
C1832       C  0.50538972  0.65264223  0.86539236    -0.20000
C1833       C  0.53477008  0.67023391  0.90005228    -0.21200
C1834       C  0.53926216  0.67907275  0.92356681    -0.19800
C1835       C  0.51880352  0.68033118  0.93658825     0.19400
C1836       C  0.49301611  0.67237686  0.92588843     0.01500
C1837       C  0.47376950  0.67578469  0.93934468    -0.14500
C1838       C  0.47956506  0.68573010  0.96267301    -0.12200
C1839       C  0.50434883  0.69202110  0.97345990     0.01100
C1840       C  0.52393994  0.68940125  0.96032711    -0.24400
H1841       H  0.43821841  0.63412848  0.85911169     0.09100
H1842       H  0.44433786  0.64954985  0.89969177     0.12600
H1843       H  0.52224391  0.65338868  0.85546587     0.11400
H1844       H  0.55121425  0.66994096  0.89035582     0.12600
H1845       H  0.55902953  0.68529429  0.93154169     0.11600
H1846       H  0.45417288  0.67113617  0.93226457     0.08700
H1847       H  0.46415226  0.68754577  0.97265538     0.11900
H1848       H  0.54323727  0.69446435  0.96865242     0.13800
C1849       C  0.53045568  0.77129075  0.60682877    -0.01700
C1850       C  0.52095861  0.74326443  0.60373676    -0.09700
C1851       C  0.52030563  0.72720584  0.62274596    -0.18600
C1852       C  0.52843628  0.73871597  0.64571961     0.03800
C1853       C  0.54078182  0.76781212  0.64812033     0.18000
C1854       C  0.54180323  0.78385649  0.62863922    -0.20000
C1855       C  0.55000480  0.78032815  0.67034444    -0.21200
C1856       C  0.54553506  0.76438861  0.69054024    -0.19800
C1857       C  0.53124032  0.73551640  0.68906826     0.19400
C1858       C  0.52299402  0.72225775  0.66656748     0.01500
C1859       C  0.50775450  0.69302693  0.66612353    -0.14500
C1860       C  0.49937054  0.67773848  0.68714804    -0.12200
C1861       C  0.50655388  0.69091271  0.70927076     0.01100
C1862       C  0.52354437  0.71977972  0.71009155    -0.24400
H1863       H  0.51199385  0.73327002  0.58695108     0.09100
H1864       H  0.51197516  0.70561003  0.61914721     0.12600
H1865       H  0.54885734  0.80553708  0.63107762     0.11400
H1866       H  0.55979511  0.80251357  0.67226956     0.12600
H1867       H  0.55207761  0.77465378  0.70759852     0.11600
H1868       H  0.50075482  0.68134250  0.64987634     0.08700
H1869       H  0.48641266  0.65544432  0.68609740     0.11900
H1870       H  0.52898564  0.73014338  0.72717133     0.13800
C1871       C  0.15804284  0.68370308  0.47827357    -0.01700
C1872       C  0.17941594  0.68348509  0.46581491    -0.09700
C1873       C  0.17515548  0.67253186  0.44283444    -0.18600
C1874       C  0.14935751  0.66184602  0.43142292     0.03800
C1875       C  0.12834854  0.66373833  0.44364003     0.18000
C1876       C  0.13264145  0.67400242  0.46696887    -0.20000
C1877       C  0.10314826  0.65534398  0.43252213    -0.21200
C1878       C  0.09847464  0.64547035  0.40932949    -0.19800
C1879       C  0.11839555  0.64257597  0.39705672     0.19400
C1880       C  0.14375579  0.64980432  0.40821649     0.01500
C1881       C  0.16219837  0.64436076  0.39573634    -0.14500
C1882       C  0.15628526  0.63354733  0.37270005    -0.12200
C1883       C  0.13220525  0.62839620  0.36124899     0.01100
C1884       C  0.11320639  0.63268568  0.37357980    -0.24400
H1885       H  0.19921576  0.69088549  0.47420740     0.09100
H1886       H  0.19247537  0.67290908  0.43434960     0.12600
H1887       H  0.11610779  0.67443022  0.47640931     0.11400
H1888       H  0.08710801  0.65688471  0.44168760     0.12600
H1889       H  0.07899092  0.63973814  0.40103100     0.11600
H1890       H  0.18126295  0.64812883  0.40337985     0.08700
H1891       H  0.17122426  0.63038154  0.36337797     0.11900
H1892       H  0.09440475  0.62844151  0.36478828     0.13800
C1893       C  0.26783626  0.73181826  0.54100759    -0.01700
C1894       C  0.28394269  0.75900792  0.53250638    -0.09700
C1895       C  0.31278146  0.77248478  0.53172622    -0.18600
C1896       C  0.32661090  0.75926746  0.53977791     0.03800
C1897       C  0.31011099  0.73132168  0.54750667     0.18000
C1898       C  0.28113061  0.71785513  0.54773130    -0.20000
C1899       C  0.32260113  0.71728707  0.55602742    -0.21200
C1900       C  0.35108822  0.73076865  0.55819954    -0.19800
C1901       C  0.36781498  0.75848070  0.55153498     0.19400
C1902       C  0.35608624  0.77300279  0.54146034     0.01500
C1903       C  0.37441819  0.80077239  0.53423599    -0.14500
C1904       C  0.40301128  0.81385619  0.53808558    -0.12200
C1905       C  0.41391320  0.79973981  0.54948472     0.01100
C1906       C  0.39623744  0.77194200  0.55561022    -0.24400
H1907       H  0.27427048  0.77035635  0.52716741     0.09100
H1908       H  0.32370859  0.79356408  0.52555313     0.12600
H1909       H  0.26898125  0.69690072  0.55444010     0.11400
H1910       H  0.31019768  0.69597291  0.56179192     0.12600
H1911       H  0.36008086  0.71957493  0.56560418     0.11600
H1912       H  0.36722871  0.81296273  0.52586149     0.08700
H1913       H  0.41641576  0.83527665  0.53300484     0.11900
H1914       H  0.40465749  0.76075886  0.56410434     0.13800
C1915       C  0.11447046  0.72459672  0.55972364    -0.01700
C1916       C  0.08747847  0.70961249  0.56886655    -0.09700
C1917       C  0.07286022  0.72282635  0.57419644    -0.18600
C1918       C  0.08512370  0.75170427  0.57101601     0.03800
C1919       C  0.11242586  0.76662530  0.56157162     0.18000
C1920       C  0.12646053  0.75301214  0.55571625    -0.20000
C1921       C  0.12606163  0.79529017  0.55868380    -0.21200
C1922       C  0.11369806  0.80978021  0.56599242    -0.19800
C1923       C  0.08710094  0.79590382  0.57582391     0.19400
C1924       C  0.07190771  0.76658088  0.57767507     0.01500
C1925       C  0.04443935  0.75370093  0.58647946    -0.14500
C1926       C  0.03319818  0.76944074  0.59421645    -0.12200
C1927       C  0.04914979  0.79833573  0.59384603     0.01100
C1928       C  0.07584771  0.81135594  0.58423535    -0.24400
H1929       H  0.07767222  0.68762858  0.57203506     0.09100
H1930       H  0.05232702  0.71009726  0.58142500     0.12600
H1931       H  0.14738507  0.76494702  0.54879458     0.11400
H1932       H  0.14682304  0.80672449  0.55137749     0.12600
H1933       H  0.12516987  0.83207467  0.56418514     0.11600
H1934       H  0.03125787  0.73155738  0.58765545     0.08700
H1935       H  0.01232367  0.75903571  0.60125270     0.11900
H1936       H  0.08797738  0.83374322  0.58338023     0.13800
C1937       C  0.34061814  0.84671248  0.85983578    -0.01700
C1938       C  0.35755413  0.84458271  0.87656803    -0.09700
C1939       C  0.34988577  0.83972475  0.90041293    -0.18600
C1940       C  0.32475868  0.83672932  0.90849450     0.03800
C1941       C  0.30707116  0.83791893  0.89141263     0.18000
C1942       C  0.31524011  0.84318661  0.86737115    -0.20000
C1943       C  0.28135449  0.83369826  0.89846487    -0.21200
C1944       C  0.27297259  0.82860087  0.92221004    -0.19800
C1945       C  0.29036448  0.82824181  0.93960439     0.19400
C1946       C  0.31662274  0.83255826  0.93290487     0.01500
C1947       C  0.33399929  0.83315322  0.95099943    -0.14500
C1948       C  0.32581911  0.82967029  0.97463369    -0.12200
C1949       C  0.29997319  0.82528533  0.98139048     0.01100
C1950       C  0.28204404  0.82418124  0.96372400    -0.24400
H1951       H  0.37695876  0.84666146  0.87122259     0.09100
H1952       H  0.36404055  0.83807755  0.91197259     0.12600
H1953       H  0.30161721  0.84412337  0.85446976     0.11400
H1954       H  0.26759547  0.83428698  0.88551235     0.12600
H1955       H  0.25295607  0.82539262  0.92705537     0.11600
H1956       H  0.35440239  0.83686947  0.94764457     0.08700
H1957       H  0.34007063  0.83045158  0.98781333     0.11900
H1958       H  0.26208560  0.82100427  0.96877596     0.13800
C1959       C  0.49123237  0.85508128  0.63050189    -0.01700
C1960       C  0.49698986  0.84661790  0.65190004    -0.09700
C1961       C  0.49023743  0.85365495  0.67361373    -0.18600
C1962       C  0.47667057  0.86874503  0.67449582     0.03800
C1963       C  0.47273684  0.87893091  0.65277590     0.18000
C1964       C  0.48057329  0.87255035  0.63115011    -0.20000
C1965       C  0.45915541  0.89369205  0.65255508    -0.21200
C1966       C  0.44727506  0.89656923  0.67318499    -0.19800
C1967       C  0.44897490  0.88499770  0.69452717     0.19400
C1968       C  0.46485750  0.87211010  0.69576277     0.01500
C1969       C  0.46624742  0.86112311  0.71784237    -0.14500
C1970       C  0.44973033  0.85975993  0.73684503    -0.12200
C1971       C  0.43222734  0.87015295  0.73473451     0.01100
C1972       C  0.43306140  0.88419708  0.71412366    -0.24400
H1973       H  0.50573768  0.83355482  0.65184334     0.09100
H1974       H  0.49461940  0.84574107  0.68927398     0.12600
H1975       H  0.47621777  0.87937414  0.61466154     0.11400
H1976       H  0.45641080  0.90179411  0.63606902     0.12600
H1977       H  0.43557279  0.90676826  0.67219056     0.11600
H1978       H  0.47860505  0.85197993  0.72061039     0.08700
H1979       H  0.44930721  0.84893979  0.75279594     0.11900
H1980       H  0.41927902  0.89204651  0.71252195     0.13800
C1981       C  0.40171380  0.79465884  0.80345979    -0.01700
C1982       C  0.38695180  0.76742085  0.81175469    -0.09700
C1983       C  0.39964169  0.75189225  0.81348757    -0.18600
C1984       C  0.42732497  0.76282246  0.80591017     0.03800
C1985       C  0.44216264  0.79047695  0.79744553     0.18000
C1986       C  0.42964333  0.80637415  0.79721987    -0.20000
C1987       C  0.46879850  0.80155410  0.78793274    -0.21200
C1988       C  0.48043407  0.78523906  0.78542967    -0.19800
C1989       C  0.46623953  0.75782805  0.79336214     0.19400
C1990       C  0.44013019  0.74672983  0.80489129     0.01500
C1991       C  0.42752402  0.71961033  0.81408567    -0.14500
C1992       C  0.43893048  0.70327373  0.80982767    -0.12200
C1993       C  0.46319358  0.71342717  0.79647185     0.01100
C1994       C  0.47729462  0.74096618  0.78888062    -0.24400
H1995       H  0.36529132  0.75788100  0.81642627     0.09100
H1996       H  0.38677547  0.73088776  0.81953312     0.12600
H1997       H  0.44108903  0.82732097  0.79047228     0.11400
H1998       H  0.48017854  0.82258861  0.78133672     0.12600
H1999       H  0.50049859  0.79400004  0.77693025     0.11600
H2000       H  0.40851829  0.71026393  0.82415258     0.08700
H2001       H  0.42780528  0.68197087  0.81576444     0.11900
H2002       H  0.49606695  0.74878146  0.77843311     0.13800
C2003       C  0.22618580  0.76590927  0.60779307    -0.01700
C2004       C  0.21357273  0.77081628  0.62702193    -0.09700
C2005       C  0.22915871  0.78522315  0.64702545    -0.18600
C2006       C  0.25771475  0.79445690  0.64841082     0.03800
C2007       C  0.27046558  0.79083658  0.62803565     0.18000
C2008       C  0.25477947  0.77717583  0.60796174    -0.20000
C2009       C  0.29839153  0.79898454  0.62834310    -0.21200
C2010       C  0.31369519  0.80916689  0.64898993    -0.19800
C2011       C  0.30155212  0.81181998  0.66973773     0.19400
C2012       C  0.27369952  0.80546738  0.66959678     0.01500
C2013       C  0.26283241  0.80926434  0.69097450    -0.14500
C2014       C  0.27831593  0.81717242  0.71189504    -0.12200
C2015       C  0.30513541  0.82168023  0.71224471     0.01100
C2016       C  0.31687101  0.81979149  0.69086276    -0.24400
H2017       H  0.19138523  0.76183246  0.62730705     0.09100
H2018       H  0.21800575  0.78738896  0.66161511     0.12600
H2019       H  0.26444811  0.77307325  0.59309076     0.11400
H2020       H  0.30817802  0.79636574  0.61277170     0.12600
H2021       H  0.33498901  0.81428471  0.64889927     0.11600
H2022       H  0.24221828  0.80567462  0.69220851     0.08700
H2023       H  0.26881084  0.81882288  0.72807326     0.11900
H2024       H  0.33771107  0.82357068  0.69078262     0.13800
C2025       C  0.15285703  0.47925671  0.97551240    -0.01700
C2026       C  0.13034005  0.45786265  0.96356655    -0.09700
C2027       C  0.12486127  0.46132827  0.94011998    -0.18600
C2028       C  0.14151225  0.48674401  0.92811685     0.03800
C2029       C  0.16366924  0.50876986  0.94082864     0.18000
C2030       C  0.16945442  0.50466646  0.96415469    -0.20000
C2031       C  0.17978746  0.53476888  0.93024349    -0.21200
C2032       C  0.17463700  0.53932429  0.90710153    -0.19800
C2033       C  0.15368252  0.51781519  0.89378052     0.19400
C2034       C  0.13695246  0.49112881  0.90403504     0.01500
C2035       C  0.11687954  0.46980533  0.88952518    -0.14500
C2036       C  0.11390763  0.47467463  0.86580041    -0.12200
C2037       C  0.13029728  0.50097761  0.85584728     0.01100
C2038       C  0.14983672  0.52262027  0.87001746    -0.24400
H2039       H  0.11706618  0.43827366  0.97237232     0.09100
H2040       H  0.10717485  0.44389213  0.93206016     0.12600
H2041       H  0.18645630  0.52147691  0.97376092     0.11400
H2042       H  0.19647652  0.55172437  0.93995239     0.12600
H2043       H  0.18749965  0.55968381  0.89940639     0.11600
H2044       H  0.10371293  0.44892552  0.89572890     0.08700
H2045       H  0.09876826  0.45764358  0.85507358     0.11900
H2046       H  0.16291444  0.54290621  0.86222244     0.13800
C2047       C  0.10548262  0.55978469  0.72681331    -0.01700
C2048       C  0.11241600  0.58716267  0.72965661    -0.09700
C2049       C  0.11275629  0.60255028  0.71021221    -0.18600
C2050       C  0.10679334  0.59101208  0.68712949     0.03800
C2051       C  0.09671033  0.56227485  0.68489248     0.18000
C2052       C  0.09613836  0.54691840  0.70473927    -0.20000
C2053       C  0.08935312  0.54960811  0.66256436    -0.21200
C2054       C  0.09356276  0.56520607  0.64218551    -0.19800
C2055       C  0.10588102  0.59393899  0.64358647     0.19400
C2056       C  0.11225139  0.60723624  0.66611650     0.01500
C2057       C  0.12586766  0.63642031  0.66651462    -0.14500
C2058       C  0.13441450  0.65174728  0.64548643    -0.12200
C2059       C  0.12887117  0.63859427  0.62338095     0.01100
C2060       C  0.11355686  0.60963050  0.62253353    -0.24400
H2061       H  0.11976893  0.59737517  0.74665693     0.09100
H2062       H  0.11910522  0.62376140  0.71362477     0.12600
H2063       H  0.09097866  0.52572748  0.70253321     0.11400
H2064       H  0.08123105  0.52764936  0.66075077     0.12600
H2065       H  0.08848564  0.55490052  0.62509403     0.11600
H2066       H  0.13156914  0.64811118  0.68279192     0.08700
H2067       H  0.14618208  0.67409614  0.64654009     0.11900
H2068       H  0.10953981  0.59930885  0.60547748     0.13800
C2069       C  0.18805409  0.61199404  0.79621410    -0.01700
C2070       C  0.21528041  0.62229654  0.80337342    -0.09700
C2071       C  0.23305861  0.65043043  0.80733673    -0.18600
C2072       C  0.22428761  0.66938413  0.80358498     0.03800
C2073       C  0.19625313  0.65866604  0.79718958     0.18000
C2074       C  0.17829299  0.63009416  0.79402318    -0.20000
C2075       C  0.18674672  0.67662760  0.79272687    -0.21200
C2076       C  0.20488252  0.70510199  0.79308579    -0.19800
C2077       C  0.23287459  0.71627315  0.79818624     0.19400
C2078       C  0.24274861  0.69858469  0.80443797     0.01500
C2079       C  0.27108358  0.71087341  0.80989269    -0.14500
C2080       C  0.28925988  0.73908004  0.80677650    -0.12200
C2081       C  0.27972315  0.75598246  0.79893103     0.01100
C2082       C  0.25142889  0.74486996  0.79566718    -0.24400
H2083       H  0.22307157  0.60854493  0.80542001     0.09100
H2084       H  0.25382178  0.65669730  0.81237331     0.12600
H2085       H  0.15723102  0.62215940  0.78827683     0.11400
H2086       H  0.16537159  0.66859678  0.78799292     0.12600
H2087       H  0.19714365  0.71844389  0.78857744     0.11600
H2088       H  0.28010619  0.69919092  0.81565844     0.08700
H2089       H  0.31116624  0.74759553  0.80947745     0.11900
H2090       H  0.24418519  0.75810629  0.78944914     0.13800
C2091       C  0.22444391  0.53670296  0.79167595    -0.01700
C2092       C  0.23480042  0.52056601  0.79980261    -0.09700
C2093       C  0.26329160  0.53245327  0.80337305    -0.18600
C2094       C  0.28214079  0.56097759  0.79901028     0.03800
C2095       C  0.27100311  0.57740305  0.79238842     0.18000
C2096       C  0.24255984  0.56516348  0.78866911    -0.20000
C2097       C  0.28838745  0.60579035  0.78846590    -0.21200
C2098       C  0.31689663  0.61806913  0.78951655    -0.19800
C2099       C  0.32871580  0.60222326  0.79435634     0.19400
C2100       C  0.31157478  0.57361812  0.79985870     0.01500
C2101       C  0.32470091  0.55872229  0.80477059    -0.14500
C2102       C  0.35335041  0.57115202  0.80249761    -0.12200
C2103       C  0.36997745  0.59887475  0.79552705     0.01100
C2104       C  0.35755644  0.61456683  0.79250025    -0.24400
H2105       H  0.22105936  0.49853357  0.80225920     0.09100
H2106       H  0.27000031  0.51869748  0.80893511     0.12600
H2107       H  0.23451789  0.57773897  0.78252188     0.11400
H2108       H  0.27989190  0.61844846  0.78382160     0.12600
H2109       H  0.32980269  0.63993086  0.78563493     0.11600
H2110       H  0.31331013  0.53716701  0.80952942     0.08700
H2111       H  0.36236145  0.55856584  0.80527054     0.11900
H2112       H  0.37016130  0.63609776  0.78735713     0.13800
C2113       C  0.29686123  0.48503525  0.47266079    -0.01700
C2114       C  0.27896204  0.46431320  0.45685590    -0.09700
C2115       C  0.28606012  0.46534211  0.43274572    -0.18600
C2116       C  0.31136996  0.48737606  0.42359106     0.03800
C2117       C  0.32893959  0.50872678  0.43959677     0.18000
C2118       C  0.32166384  0.50730691  0.46368555    -0.20000
C2119       C  0.35387092  0.53140863  0.43156985    -0.21200
C2120       C  0.36190538  0.53341355  0.40792843    -0.19800
C2121       C  0.34539085  0.51264255  0.39168405     0.19400
C2122       C  0.31996289  0.48918335  0.39924757     0.01500
C2123       C  0.30445337  0.46861810  0.38210292    -0.14500
C2124       C  0.31354133  0.47153448  0.35847397    -0.12200
C2125       C  0.33833114  0.49500851  0.35097173     0.01100
C2126       C  0.35419301  0.51537619  0.36784686    -0.24400
H2127       H  0.25964007  0.44693915  0.46322804     0.09100
H2128       H  0.27136428  0.44858936  0.42171099     0.12600
H2129       H  0.33559233  0.52372574  0.47557896     0.11400
H2130       H  0.36729383  0.54779821  0.44369172     0.12600
H2131       H  0.38129276  0.55133131  0.40233009     0.11600
H2132       H  0.28518169  0.45005694  0.38641549     0.08700
H2133       H  0.30074955  0.45544626  0.34590202     0.11900
H2134       H  0.37339211  0.53363320  0.36238791     0.13800
C2135       C  0.22423067  0.52537884  0.53153162    -0.01700
C2136       C  0.23232907  0.54572463  0.51409558    -0.09700
C2137       C  0.21952769  0.56129597  0.51278934    -0.18600
C2138       C  0.19855633  0.55704973  0.52925616     0.03800
C2139       C  0.18950914  0.53510976  0.54585888     0.18000
C2140       C  0.20210734  0.51947080  0.54657804    -0.20000
C2141       C  0.16922930  0.52999148  0.56281671    -0.21200
C2142       C  0.15898300  0.54743150  0.56482884    -0.19800
C2143       C  0.16845587  0.57012044  0.54968007     0.19400
C2144       C  0.18747045  0.57468779  0.53099274     0.01500
C2145       C  0.19552809  0.59754577  0.51578386    -0.14500
C2146       C  0.18677221  0.61619053  0.52019291    -0.12200
C2147       C  0.16984623  0.61252963  0.53976575     0.01100
C2148       C  0.16009924  0.58910039  0.55397398    -0.24400
H2149       H  0.24965855  0.55075249  0.50248951     0.09100
H2150       H  0.22739894  0.57738146  0.49955875     0.12600
H2151       H  0.19598601  0.50379680  0.56014223     0.11400
H2152       H  0.16215870  0.51310496  0.57534690     0.12600
H2153       H  0.14419880  0.54365630  0.57884332     0.11600
H2154       H  0.20925332  0.60200594  0.50086417     0.08700
H2155       H  0.19457877  0.63440204  0.50913104     0.11900
H2156       H  0.14700455  0.58638956  0.56915835     0.13800
C2157       C  0.33623798  0.50670683  0.61792281    -0.01700
C2158       C  0.32223779  0.49955340  0.63967857    -0.09700
C2159       C  0.33681434  0.50737706  0.66101278    -0.18600
C2160       C  0.36605513  0.52360003  0.66113270     0.03800
C2161       C  0.38012800  0.52986032  0.63887573     0.18000
C2162       C  0.36513022  0.52098733  0.61755837    -0.20000
C2163       C  0.40898633  0.54643388  0.63794635    -0.21200
C2164       C  0.42411214  0.55845712  0.65848179    -0.19800
C2165       C  0.41078367  0.55388876  0.68049617     0.19400
C2166       C  0.38168018  0.53547180  0.68230677     0.01500
C2167       C  0.36932125  0.53113780  0.70506512    -0.14500
C2168       C  0.38470593  0.54653278  0.72461208    -0.12200
C2169       C  0.41287936  0.56601505  0.72228222     0.01100
C2170       C  0.42610159  0.56891894  0.70047455    -0.24400
H2171       H  0.29986345  0.48876730  0.64014518     0.09100
H2172       H  0.32454636  0.50160215  0.67702619     0.12600
H2173       H  0.37591181  0.52697824  0.60061352     0.11400
H2174       H  0.41984887  0.55112130  0.62107713     0.12600
H2175       H  0.44630519  0.57217875  0.65701139     0.11600
H2176       H  0.34762505  0.51686924  0.70817105     0.08700
H2177       H  0.37424740  0.54422844  0.74141070     0.11900
H2178       H  0.44791896  0.58431105  0.69867536     0.13800
C2179       C  0.15212313  0.47907582  0.70974942    -0.01700
C2180       C  0.14396930  0.48355511  0.68764244    -0.09700
C2181       C  0.15101122  0.47524916  0.66672552    -0.18600
C2182       C  0.16736399  0.46303978  0.66732218     0.03800
C2183       C  0.17475610  0.45772129  0.68989343     0.18000
C2184       C  0.16630842  0.46489034  0.71078057    -0.20000
C2185       C  0.19230104  0.44725322  0.69149059    -0.21200
C2186       C  0.20478944  0.44444982  0.67122157    -0.19800
C2187       C  0.19900007  0.45085617  0.64885457     0.19400
C2188       C  0.17868131  0.45824517  0.64642526     0.01500
C2189       C  0.17183207  0.46204828  0.62321582    -0.14500
C2190       C  0.18715361  0.46220657  0.60361228    -0.12200
C2191       C  0.20982218  0.45901245  0.60667508     0.01100
C2192       C  0.21467969  0.45176581  0.62907997    -0.24400
H2193       H  0.13284615  0.49432799  0.68647069     0.09100
H2194       H  0.14487513  0.48026273  0.65033159     0.12600
H2195       H  0.17287201  0.46151721  0.72783923     0.11400
H2196       H  0.19781474  0.44292330  0.70864184     0.12600
H2197       H  0.21974000  0.43810942  0.67312629     0.11600
H2198       H  0.15534234  0.46578723  0.61978180     0.08700
H2199       H  0.18260067  0.46701953  0.58629342     0.11900
H2200       H  0.23186165  0.44862003  0.63136729     0.13800
C2201       C  0.35108171  0.58157685  0.54222076    -0.01700
C2202       C  0.37925146  0.59059582  0.54178681    -0.09700
C2203       C  0.39913998  0.61860120  0.53887341    -0.18600
C2204       C  0.39135534  0.63852217  0.53642044     0.03800
C2205       C  0.36266895  0.62899874  0.53598354     0.18000
C2206       C  0.34300342  0.60086473  0.53865789    -0.20000
C2207       C  0.35366602  0.64766980  0.53373619    -0.21200
C2208       C  0.37256346  0.67586223  0.53304903    -0.19800
C2209       C  0.40088914  0.68600463  0.53446664     0.19400
C2210       C  0.41083711  0.66756254  0.53541026     0.01500
C2211       C  0.43978077  0.67911565  0.53624079    -0.14500
C2212       C  0.45782607  0.70765590  0.53803068    -0.12200
C2213       C  0.44758589  0.72543345  0.53894005     0.01100
C2214       C  0.41923911  0.71455505  0.53611147    -0.24400
H2215       H  0.38601246  0.57608725  0.54444309     0.09100
H2216       H  0.42041756  0.62406821  0.53926816     0.12600
H2217       H  0.32122626  0.59409902  0.53871783     0.11400
H2218       H  0.33180697  0.64045737  0.53320467     0.12600
H2219       H  0.36492883  0.68985081  0.53202400     0.11600
H2220       H  0.44905136  0.66663590  0.53632319     0.08700
H2221       H  0.47972285  0.71567543  0.54007608     0.11900
H2222       H  0.41125318  0.72829805  0.53638687     0.13800
C2223       C  0.26362952  0.40630601  0.56107815    -0.01700
C2224       C  0.27197931  0.38960712  0.55007612    -0.09700
C2225       C  0.26249870  0.36282305  0.55869625    -0.18600
C2226       C  0.24455183  0.35226514  0.57870494     0.03800
C2227       C  0.23811522  0.37039839  0.59065809     0.18000
C2228       C  0.24753242  0.39685373  0.58176599    -0.20000
C2229       C  0.22137784  0.36178524  0.61096977    -0.21200
C2230       C  0.20954796  0.33492633  0.61909907    -0.19800
C2231       C  0.21384823  0.31593365  0.60691190     0.19400
C2232       C  0.23182164  0.32426103  0.58684356     0.01500
C2233       C  0.23500548  0.30380513  0.57528020    -0.14500
C2234       C  0.21955356  0.27601331  0.58246499    -0.12200
C2235       C  0.20080600  0.26791038  0.60151140     0.01100
C2236       C  0.19905265  0.28829382  0.61414557    -0.24400
H2237       H  0.28477102  0.39675929  0.53423649     0.09100
H2238       H  0.26898435  0.35062773  0.54909942     0.12600
H2239       H  0.24161055  0.41004728  0.59069159     0.11400
H2240       H  0.21678892  0.37573211  0.62028758     0.12600
H2241       H  0.19606084  0.32868561  0.63453036     0.11600
H2242       H  0.24847312  0.30852255  0.56011735     0.08700
H2243       H  0.22154357  0.26072025  0.57253929     0.11900
H2244       H  0.18503123  0.28246617  0.62918326     0.13800
C2245       C  0.92411923  0.73524384  0.89204498    -0.01700
C2246       C  0.94024712  0.72414193  0.89845617    -0.09700
C2247       C  0.92772270  0.69653904  0.90592710    -0.18600
C2248       C  0.89858396  0.67946788  0.90784640     0.03800
C2249       C  0.88256673  0.69140937  0.90224850     0.18000
C2250       C  0.89532145  0.71867204  0.89398285    -0.20000
C2251       C  0.85385699  0.67624889  0.90521951    -0.21200
C2252       C  0.84058002  0.64945425  0.91392304    -0.19800
C2253       C  0.85555372  0.63679071  0.91908225     0.19400
C2254       C  0.88467666  0.65123932  0.91553701     0.01500
C2255       C  0.89834089  0.63658931  0.91953245    -0.14500
C2256       C  0.88367986  0.60898653  0.92720442    -0.12200
C2257       C  0.85522605  0.59550284  0.93176485     0.01100
C2258       C  0.84137771  0.60956650  0.92759503    -0.24400
H2259       H  0.96257048  0.73672392  0.89738750     0.09100
H2260       H  0.94130561  0.68925921  0.91056713     0.12600
H2261       H  0.88272608  0.72734643  0.88964096     0.11400
H2262       H  0.84159828  0.68534586  0.90113383     0.12600
H2263       H  0.81835326  0.63842809  0.91637990     0.11600
H2264       H  0.92021568  0.64580283  0.91645314     0.08700
H2265       H  0.89468568  0.59830001  0.92996515     0.11900
H2266       H  0.81920838  0.59896139  0.93045619     0.13800
C2267       C  0.85817240  0.44720814  0.76661865    -0.01700
C2268       C  0.87283687  0.44699655  0.78634793    -0.09700
C2269       C  0.87293666  0.46045781  0.80725002    -0.18600
C2270       C  0.85775168  0.47393108  0.80889574     0.03800
C2271       C  0.84574183  0.47668420  0.78779745     0.18000
C2272       C  0.84624312  0.46349423  0.76690243    -0.20000
C2273       C  0.83121981  0.49049534  0.78814816    -0.21200
C2274       C  0.82621506  0.49955345  0.80947128    -0.19800
C2275       C  0.83543060  0.49477172  0.83088289     0.19400
C2276       C  0.85221304  0.48284010  0.83087594     0.01500
C2277       C  0.86096059  0.47850202  0.85303079    -0.14500
C2278       C  0.85196370  0.48411586  0.87425218    -0.12200
C2279       C  0.83407197  0.49424739  0.87410754     0.01100
C2280       C  0.82662112  0.50039616  0.85237979    -0.24400
H2281       H  0.88217603  0.43446382  0.78628741     0.09100
H2282       H  0.88367778  0.45855400  0.82215082     0.12600
H2283       H  0.83494604  0.46362017  0.75144454     0.11400
H2284       H  0.82249518  0.49308547  0.77198955     0.12600
H2285       H  0.81385459  0.50909138  0.80933279     0.11600
H2286       H  0.87386999  0.46980297  0.85460504     0.08700
H2287       H  0.85803500  0.47926368  0.89087758     0.11900
H2288       H  0.81301501  0.50854761  0.85219742     0.13800
C2289       C  0.91466086  0.39349400  0.72522047    -0.01700
C2290       C  0.91924502  0.38181612  0.74526987    -0.09700
C2291       C  0.94594693  0.39259913  0.75422316    -0.18600
C2292       C  0.96904715  0.41548426  0.74326688     0.03800
C2293       C  0.96426029  0.42667062  0.72253767     0.18000
C2294       C  0.93738636  0.41574663  0.71386246    -0.20000
C2295       C  0.98626835  0.44898186  0.71065689    -0.21200
C2296       C  0.01307216  0.46062188  0.71892664    -0.19800
C2297       C  0.01850192  0.45045962  0.73945328     0.19400
C2298       C  0.99664867  0.42785607  0.75210049     0.01500
C2299       C  0.00343867  0.41915306  0.77323032    -0.14500
C2300       C  0.03069563  0.43264973  0.78149992    -0.12200
C2301       C  0.05186040  0.45463626  0.76869391     0.01100
C2302       C  0.04572269  0.46327592  0.74766808    -0.24400
H2303       H  0.90203311  0.36467368  0.75444951     0.09100
H2304       H  0.94783598  0.38268623  0.76978940     0.12600
H2305       H  0.93414623  0.42489639  0.69827576     0.11400
H2306       H  0.98271830  0.45755257  0.69484613     0.12600
H2307       H  0.02966227  0.47794250  0.70933833     0.11600
H2308       H  0.98808011  0.40244177  0.78399857     0.08700
H2309       H  0.03521419  0.42614373  0.79805767     0.11900
H2310       H  0.06218927  0.48072066  0.73805610     0.13800
C2311       C  0.73727668  0.28202578  0.96324842    -0.01700
C2312       C  0.72772999  0.29354947  0.97991137    -0.09700
C2313       C  0.74088013  0.32237484  0.98218109    -0.18600
C2314       C  0.76362344  0.34030165  0.96737704     0.03800
C2315       C  0.77383747  0.32808176  0.95146363     0.18000
C2316       C  0.76093195  0.29935277  0.94991302    -0.20000
C2317       C  0.79575767  0.34443858  0.93598793    -0.21200
C2318       C  0.80665319  0.37268273  0.93470337    -0.19800
C2319       C  0.79633191  0.38532337  0.94928575     0.19400
C2320       C  0.77551800  0.36962981  0.96658445     0.01500
C2321       C  0.76668549  0.38388581  0.98138560    -0.14500
C2322       C  0.77647833  0.41197534  0.97776178    -0.12200
C2323       C  0.79532850  0.42653704  0.95946139     0.01100
C2324       C  0.80575438  0.41336054  0.94577108    -0.24400
H2325       H  0.70922075  0.28034413  0.99019481     0.09100
H2326       H  0.73196513  0.33000500  0.99474344     0.12600
H2327       H  0.76824673  0.29030210  0.93707675     0.11400
H2328       H  0.80371993  0.33514955  0.92402414     0.12600
H2329       H  0.82276635  0.38461424  0.92174790     0.11600
H2330       H  0.75160215  0.37367505  0.99533878     0.08700
H2331       H  0.76803784  0.42192057  0.98834168     0.11900
H2332       H  0.82020652  0.42467542  0.93147785     0.13800
C2333       C  0.80771033  0.31724845  0.78147518    -0.01700
C2334       C  0.79543395  0.28856553  0.77918182    -0.09700
C2335       C  0.78753954  0.27155030  0.79915231    -0.18600
C2336       C  0.79180023  0.28273253  0.82228433     0.03800
C2337       C  0.80660223  0.31199865  0.82458886     0.18000
C2338       C  0.81404442  0.32893463  0.80427102    -0.20000
C2339       C  0.81299009  0.32408357  0.84717847    -0.21200
C2340       C  0.80352593  0.30774149  0.86751663    -0.19800
C2341       C  0.78662359  0.27897278  0.86575271     0.19400
C2342       C  0.78084407  0.26598212  0.84310879     0.01500
C2343       C  0.76251127  0.23701455  0.84218013    -0.14500
C2344       C  0.74854223  0.22214331  0.86253381    -0.12200
C2345       C  0.75327333  0.23531603  0.88456557     0.01100
C2346       C  0.77359933  0.26337278  0.88630291    -0.24400
H2347       H  0.79082713  0.27899936  0.76178586     0.09100
H2348       H  0.77782240  0.24969821  0.79589195     0.12600
H2349       H  0.82422461  0.35116282  0.80621925     0.11400
H2350       H  0.82479891  0.34635445  0.84913199     0.12600
H2351       H  0.80819930  0.31778441  0.88470207     0.11600
H2352       H  0.75693231  0.22557685  0.82576774     0.08700
H2353       H  0.73274313  0.20048807  0.86082623     0.11900
H2354       H  0.77707598  0.27369025  0.90324283     0.13800
C2355       C  0.70851755  0.12615948  0.93180290    -0.01700
C2356       C  0.70096390  0.10143135  0.94350617    -0.09700
C2357       C  0.71279110  0.08585843  0.93675849    -0.18600
C2358       C  0.73242415  0.09465442  0.91794897     0.03800
C2359       C  0.73879230  0.11913323  0.90558186     0.18000
C2360       C  0.72687181  0.13438877  0.91253472    -0.20000
C2361       C  0.75768077  0.12886088  0.88669830    -0.21200
C2362       C  0.77115779  0.11525408  0.88012663    -0.19800
C2363       C  0.76606147  0.09153859  0.89224401     0.19400
C2364       C  0.74642731  0.08058989  0.91115283     0.01500
C2365       C  0.74221994  0.05644871  0.92258334    -0.14500
C2366       C  0.75728462  0.04414581  0.91578723    -0.12200
C2367       C  0.77699501  0.05545831  0.89744283     0.01100
C2368       C  0.78095434  0.07902403  0.88566521    -0.24400
H2369       H  0.68679179  0.09472920  0.95845629     0.09100
H2370       H  0.70661424  0.06736148  0.94682540     0.12600
H2371       H  0.73248015  0.15335140  0.90318885     0.11400
H2372       H  0.76242702  0.14743754  0.87716672     0.12600
H2373       H  0.78598692  0.12358256  0.86563310     0.11600
H2374       H  0.72768075  0.04682876  0.93700687     0.08700
H2375       H  0.75385203  0.02600471  0.92525690     0.11900
H2376       H  0.79604187  0.08800022  0.87139222     0.13800
C2377       C  0.74248029  0.30173598  0.69617065    -0.01700
C2378       C  0.73190079  0.27346688  0.69336337    -0.09700
C2379       C  0.70333036  0.25507698  0.69116488    -0.18600
C2380       C  0.68459735  0.26464094  0.69193235     0.03800
C2381       C  0.69591596  0.29363988  0.69301404     0.18000
C2382       C  0.72451854  0.31173332  0.69506237    -0.20000
C2383       C  0.67858493  0.30441578  0.69344232    -0.21200
C2384       C  0.65005953  0.28694485  0.69427550    -0.19800
C2385       C  0.63815899  0.25826602  0.69472886     0.19400
C2386       C  0.65516498  0.24663629  0.69288222     0.01500
C2387       C  0.64197546  0.21753574  0.69318837    -0.14500
C2388       C  0.61340008  0.20084766  0.69645321    -0.12200
C2389       C  0.59688510  0.21243802  0.69950088     0.01100
C2390       C  0.60940009  0.24120351  0.69798635    -0.24400
H2391       H  0.74552349  0.26540796  0.69437804     0.09100
H2392       H  0.69648106  0.23347360  0.68985568     0.12600
H2393       H  0.73278139  0.33368863  0.69728587     0.11400
H2394       H  0.68717919  0.32654514  0.69395345     0.12600
H2395       H  0.63724609  0.29595747  0.69534753     0.11600
H2396       H  0.65324725  0.20705807  0.69160198     0.08700
H2397       H  0.60435979  0.17869401  0.69750753     0.11900
H2398       H  0.59688719  0.25044486  0.70018177     0.13800
C2399       C  0.55484088  0.13719920  0.77057550    -0.01700
C2400       C  0.54148511  0.11701669  0.78812796    -0.09700
C2401       C  0.55648635  0.11582962  0.80737628    -0.18600
C2402       C  0.58526569  0.13507935  0.80950688     0.03800
C2403       C  0.59870255  0.15416305  0.79059113     0.18000
C2404       C  0.58349311  0.15489352  0.77145287    -0.20000
C2405       C  0.62701711  0.17363663  0.79146543    -0.21200
C2406       C  0.64211991  0.17596443  0.81151807    -0.19800
C2407       C  0.62926203  0.15880942  0.83110867     0.19400
C2408       C  0.60093912  0.13737503  0.83018442     0.01500
C2409       C  0.58935103  0.12045266  0.85056920    -0.14500
C2410       C  0.60457928  0.12631919  0.87159371    -0.12200
C2411       C  0.63165232  0.14893937  0.87269733     0.01100
C2412       C  0.64420604  0.16426938  0.85218161    -0.24400
H2413       H  0.51925773  0.10326098  0.78769928     0.09100
H2414       H  0.54487620  0.10046439  0.82077286     0.12600
H2415       H  0.59378802  0.17047769  0.75773716     0.11400
H2416       H  0.63733248  0.18796656  0.77692624     0.12600
H2417       H  0.66378072  0.19205785  0.81207316     0.11600
H2418       H  0.56825994  0.10339744  0.85110997     0.08700
H2419       H  0.59456956  0.11436043  0.88743371     0.11900
H2420       H  0.66523375  0.18178945  0.85313093     0.13800
C2421       C  0.37935329  0.92832728  0.77322524    -0.01700
C2422       C  0.36253060  0.93898145  0.76797065    -0.09700
C2423       C  0.37419659  0.96634841  0.76010504    -0.18600
C2424       C  0.40311324  0.98359753  0.75657588     0.03800
C2425       C  0.41982779  0.97222682  0.76146510     0.18000
C2426       C  0.40796200  0.94520564  0.77013761    -0.20000
C2427       C  0.44832713  0.98766705  0.75730864    -0.21200
C2428       C  0.46072638  0.01418849  0.74812537    -0.19800
C2429       C  0.44506669  0.02623655  0.74345839     0.19400
C2430       C  0.41612122  0.01145705  0.74801133     0.01500
C2431       C  0.40173982  0.02540455  0.74397833    -0.14500
C2432       C  0.41561521  0.05277590  0.73568680    -0.12200
C2433       C  0.44396270  0.06671189  0.73056747     0.01100
C2434       C  0.45842858  0.05321013  0.73444402    -0.24400
H2435       H  0.34032571  0.92617931  0.77013590     0.09100
H2436       H  0.36009037  0.97325923  0.75642914     0.12600
H2437       H  0.42103933  0.93688684  0.77375579     0.11400
H2438       H  0.46110125  0.97901525  0.76088263     0.12600
H2439       H  0.48281997  0.02546955  0.74483763     0.11600
H2440       H  0.37990781  0.01583698  0.74745916     0.08700
H2441       H  0.40410201  0.06295478  0.73299537     0.11900
H2442       H  0.48050446  0.06410161  0.73100423     0.13800
C2443       C  0.57549128  0.38110669  0.69553172    -0.01700
C2444       C  0.59112356  0.36914204  0.69004685    -0.09700
C2445       C  0.57836110  0.34052796  0.68732818    -0.18600
C2446       C  0.54947896  0.32286616  0.69071458     0.03800
C2447       C  0.53369875  0.33524253  0.69577021     0.18000
C2448       C  0.54667023  0.36404357  0.69758677    -0.20000
C2449       C  0.50527075  0.31878692  0.70026213    -0.21200
C2450       C  0.49237916  0.29019307  0.70125043    -0.19800
C2451       C  0.50748899  0.27735464  0.69725320     0.19400
C2452       C  0.53597769  0.29342052  0.69082187     0.01500
C2453       C  0.54999085  0.27932613  0.68596983    -0.14500
C2454       C  0.53713069  0.25099278  0.68990539    -0.12200
C2455       C  0.50996741  0.23584331  0.69839691     0.01100
C2456       C  0.49476549  0.24874255  0.70106046    -0.24400
H2457       H  0.61340129  0.38189373  0.68842811     0.09100
H2458       H  0.59183604  0.33281203  0.68363447     0.12600
H2459       H  0.53438767  0.37304865  0.70218343     0.11400
H2460       H  0.49313604  0.32814919  0.70404397     0.12600
H2461       H  0.47061345  0.27809490  0.70583192     0.11600
H2462       H  0.57115363  0.28972718  0.67993752     0.08700
H2463       H  0.54900059  0.24110624  0.68754770     0.11900
H2464       H  0.47371792  0.23691773  0.70772578     0.13800
C2465       C  0.67027777  0.50943428  0.78693380    -0.01700
C2466       C  0.69872751  0.52884789  0.78704617    -0.09700
C2467       C  0.71379003  0.53557250  0.80817808    -0.18600
C2468       C  0.70075397  0.52289838  0.82994111     0.03800
C2469       C  0.67158849  0.50452721  0.82985685     0.18000
C2470       C  0.65674087  0.49817420  0.80856535    -0.20000
C2471       C  0.65751904  0.49135663  0.85079394    -0.21200
C2472       C  0.67197983  0.49433309  0.87149810    -0.19800
C2473       C  0.70081920  0.51080232  0.87180850     0.19400
C2474       C  0.71563426  0.52637178  0.85142287     0.01500
C2475       C  0.74477515  0.54340235  0.85316181    -0.14500
C2476       C  0.75866595  0.54276586  0.87343292    -0.12200
C2477       C  0.74389883  0.52534655  0.89241228     0.01100
C2478       C  0.71502417  0.51038069  0.89193726    -0.24400
H2479       H  0.70966484  0.53787409  0.77055341     0.09100
H2480       H  0.73573896  0.54991502  0.80675237     0.12600
H2481       H  0.63466931  0.48335937  0.80868522     0.11400
H2482       H  0.63525785  0.47766045  0.85090003     0.12600
H2483       H  0.66059320  0.48282924  0.88713847     0.11600
H2484       H  0.75743378  0.55651739  0.83880921     0.08700
H2485       H  0.78105343  0.55444653  0.87359930     0.11900
H2486       H  0.70364338  0.49696280  0.90677113     0.13800
C2487       C  0.78410798  0.42103184  0.69412459    -0.01700
C2488       C  0.79622887  0.44962751  0.69696106    -0.09700
C2489       C  0.78048824  0.46202991  0.69446922    -0.18600
C2490       C  0.75198878  0.44603881  0.68906283     0.03800
C2491       C  0.74045951  0.41737099  0.68450496     0.18000
C2492       C  0.75650662  0.40525946  0.68703860    -0.20000
C2493       C  0.71254285  0.40054230  0.67870707    -0.21200
C2494       C  0.69523563  0.41106271  0.67899417    -0.19800
C2495       C  0.70544040  0.43864006  0.68512654     0.19400
C2496       C  0.73411440  0.45691151  0.68939689     0.01500
C2497       C  0.74311403  0.48468880  0.69535056    -0.14500
C2498       C  0.72403065  0.49305787  0.69919016    -0.12200
C2499       C  0.69573520  0.47415566  0.69673196     0.01100
C2500       C  0.68672409  0.44746675  0.68865672    -0.24400
H2501       H  0.81759623  0.46225855  0.70239506     0.09100
H2502       H  0.79092904  0.48394681  0.69770538     0.12600
H2503       H  0.74711360  0.38318126  0.68451065     0.11400
H2504       H  0.70377109  0.37879392  0.67487369     0.12600
H2505       H  0.67344563  0.39719910  0.67542527     0.11600
H2506       H  0.76454916  0.49997914  0.69833963     0.08700
H2507       H  0.73124032  0.51377194  0.70555580     0.11900
H2508       H  0.66471862  0.43286593  0.68682467     0.13800
C2509       C  0.52066799  0.60427201  0.76655613    -0.01700
C2510       C  0.54898843  0.61986703  0.76130198    -0.09700
C2511       C  0.56336974  0.60691651  0.75428443    -0.18600
C2512       C  0.54961620  0.57783631  0.75169636     0.03800
C2513       C  0.52062237  0.56232579  0.75596758     0.18000
C2514       C  0.50668679  0.57549022  0.76378976    -0.20000
C2515       C  0.50557792  0.53375115  0.75217929    -0.21200
C2516       C  0.51864964  0.52017336  0.74408749    -0.19800
C2517       C  0.54727345  0.53463345  0.74038817     0.19400
C2518       C  0.56334767  0.56356240  0.74467834     0.01500
C2519       C  0.59241957  0.57669795  0.74214388    -0.14500
C2520       C  0.60483845  0.56178143  0.73520968    -0.12200
C2521       C  0.58870562  0.53355225  0.72995920     0.01100
C2522       C  0.55992380  0.52018032  0.73262558    -0.24400
H2523       H  0.56015742  0.64215074  0.76297111     0.09100
H2524       H  0.58512859  0.62018778  0.75057382     0.12600
H2525       H  0.48461898  0.56328655  0.76720631     0.11400
H2526       H  0.48344012  0.52184374  0.75520004     0.12600
H2527       H  0.50630794  0.49809088  0.74102415     0.11600
H2528       H  0.60607952  0.59836840  0.74582717     0.08700
H2529       H  0.62712062  0.57247663  0.73351911     0.11900
H2530       H  0.54731311  0.49818714  0.72912595     0.13800
C2531       C  0.43871461  0.21560263  0.89445714    -0.01700
C2532       C  0.42483379  0.21676541  0.87448878    -0.09700
C2533       C  0.42379435  0.20260837  0.85368837    -0.18600
C2534       C  0.43726285  0.18740401  0.85229893     0.03800
C2535       C  0.44872117  0.18407992  0.87352250     0.18000
C2536       C  0.44907282  0.19792308  0.89434306    -0.20000
C2537       C  0.46210710  0.16913839  0.87332720    -0.21200
C2538       C  0.46699477  0.15989696  0.85203786    -0.19800
C2539       C  0.45840350  0.16520851  0.83052170     0.19400
C2540       C  0.44205096  0.17759793  0.83039236     0.01500
C2541       C  0.43306707  0.18146218  0.80814198    -0.14500
C2542       C  0.44232048  0.17593121  0.78693387    -0.12200
C2543       C  0.46070060  0.16635848  0.78722858     0.01100
C2544       C  0.46758006  0.15981058  0.80908304    -0.24400
H2545       H  0.41688708  0.23051802  0.87428263     0.09100
H2546       H  0.41399302  0.20551661  0.83857346     0.12600
H2547       H  0.45995154  0.19717939  0.90985718     0.11400
H2548       H  0.47036851  0.16607023  0.88955862     0.12600
H2549       H  0.47884040  0.14981278  0.85229615     0.11600
H2550       H  0.41977158  0.18972568  0.80653187     0.08700
H2551       H  0.43624531  0.18062228  0.77023715     0.11900
H2552       H  0.48121105  0.15169540  0.80944106     0.13800
C2553       C  0.54551315  0.42034072  0.76926557    -0.01700
C2554       C  0.54213085  0.43373690  0.78870685    -0.09700
C2555       C  0.52777860  0.41868315  0.80901677    -0.18600
C2556       C  0.51671737  0.38977120  0.81037646     0.03800
C2557       C  0.51834685  0.37622655  0.78968202     0.18000
C2558       C  0.53255788  0.39153397  0.76948579    -0.20000
C2559       C  0.50735607  0.34768157  0.78968830    -0.21200
C2560       C  0.49629494  0.33239083  0.81032057    -0.19800
C2561       C  0.49619462  0.34532593  0.83148055     0.19400
C2562       C  0.50561903  0.37403426  0.83174367     0.01500
C2563       C  0.50497746  0.38591738  0.85368439    -0.14500
C2564       C  0.49723207  0.37041282  0.87464446    -0.12200
C2565       C  0.48964211  0.34256170  0.87443972     0.01100
C2566       C  0.48809421  0.32992431  0.85261738    -0.24400
H2567       H  0.55221094  0.45604532  0.78885137     0.09100
H2568       H  0.52675198  0.43037731  0.82370276     0.12600
H2569       H  0.53523958  0.38118736  0.75436200     0.11400
H2570       H  0.50824326  0.33725488  0.77382636     0.12600
H2571       H  0.48882367  0.31047552  0.80994415     0.11600
H2572       H  0.51131560  0.40737032  0.85536492     0.08700
H2573       H  0.49828460  0.38065499  0.89123259     0.11900
H2574       H  0.48188405  0.30830904  0.85218405     0.13800
C2575       C  0.61083701  0.20024053  0.95487724    -0.01700
C2576       C  0.58273508  0.18080109  0.95173466    -0.09700
C2577       C  0.56282720  0.18782598  0.95648000    -0.18600
C2578       C  0.57063618  0.21470722  0.96435922     0.03800
C2579       C  0.59915290  0.23379989  0.96847505     0.18000
C2580       C  0.61870500  0.22629490  0.96409286    -0.20000
C2581       C  0.60830146  0.26081962  0.97578193    -0.21200
C2582       C  0.58992298  0.26994828  0.97768974    -0.19800
C2583       C  0.56191214  0.25209481  0.97277621     0.19400
C2584       C  0.55156605  0.22391181  0.96702344     0.01500
C2585       C  0.52281588  0.20666401  0.96312965    -0.14500
C2586       C  0.50567270  0.21763875  0.96260286    -0.12200
C2587       C  0.51668449  0.24595176  0.96603093     0.01100
C2588       C  0.54447667  0.26273447  0.97228202    -0.24400
H2589       H  0.57620389  0.16051792  0.94465680     0.09100
H2590       H  0.54165471  0.17217106  0.95293877     0.12600
H2591       H  0.64042407  0.24136317  0.96689951     0.11400
H2592       H  0.63002259  0.27534717  0.97908751     0.12600
H2593       H  0.59781231  0.29135239  0.98235477     0.11600
H2594       H  0.51318845  0.18487461  0.95958460     0.08700
H2595       H  0.48415018  0.20427518  0.95788526     0.11900
H2596       H  0.55294091  0.28458337  0.97541475     0.13800
C2597       C  0.55857397  0.36076942  0.95999227    -0.01700
C2598       C  0.57531003  0.34937971  0.95863327    -0.09700
C2599       C  0.60347324  0.36532785  0.96306609    -0.18600
C2600       C  0.61614009  0.39374594  0.96828412     0.03800
C2601       C  0.59893714  0.40514121  0.97032423     0.18000
C2602       C  0.57018406  0.38839063  0.96677495    -0.20000
C2603       C  0.61078862  0.43347038  0.97442579    -0.21200
C2604       C  0.63939772  0.45097323  0.97498112    -0.19800
C2605       C  0.65682499  0.44046514  0.97206728     0.19400
C2606       C  0.64540508  0.41154262  0.96983723     0.01500
C2607       C  0.66384362  0.40181366  0.96812722    -0.14500
C2608       C  0.69222633  0.42013859  0.96605239    -0.12200
C2609       C  0.70326393  0.44871348  0.96594803     0.01100
C2610       C  0.68555991  0.45875247  0.97016443    -0.24400
H2611       H  0.56663799  0.32805926  0.95331490     0.09100
H2612       H  0.61489047  0.35505399  0.96099252     0.12600
H2613       H  0.55725003  0.39729062  0.96752112     0.11400
H2614       H  0.59789768  0.44233903  0.97613009     0.12600
H2615       H  0.64795597  0.47297601  0.97707067     0.11600
H2616       H  0.65698714  0.38016624  0.96773316     0.08700
H2617       H  0.70548387  0.41180129  0.96350009     0.11900
H2618       H  0.69391195  0.48084706  0.97050698     0.13800
C2619       C  0.38624446  0.27365588  0.93503674    -0.01700
C2620       C  0.36492513  0.26522159  0.95167561    -0.09700
C2621       C  0.33779230  0.25493537  0.94428253    -0.18600
C2622       C  0.33106370  0.25177066  0.91985314     0.03800
C2623       C  0.35277680  0.25954937  0.90306969     0.18000
C2624       C  0.38018136  0.27125629  0.91076164    -0.20000
C2625       C  0.34683403  0.25446348  0.87883023    -0.21200
C2626       C  0.31961820  0.24069458  0.87100348    -0.19800
C2627       C  0.29783249  0.23296169  0.88709146     0.19400
C2628       C  0.30337897  0.23970983  0.91156194     0.01500
C2629       C  0.28089967  0.23370534  0.92670836    -0.14500
C2630       C  0.25381059  0.21943462  0.91828518    -0.12200
C2631       C  0.24831366  0.21043466  0.89469521     0.01100
C2632       C  0.27043881  0.21789518  0.87901159    -0.24400
H2633       H  0.36929132  0.26651576  0.97050322     0.09100
H2634       H  0.32234185  0.24843988  0.95807457     0.12600
H2635       H  0.39665109  0.27704479  0.89788764     0.11400
H2636       H  0.36325543  0.26018218  0.86595013     0.12600
H2637       H  0.31557536  0.23600193  0.85225665     0.11600
H2638       H  0.28364362  0.23969516  0.94515393     0.08700
H2639       H  0.23699124  0.21417699  0.93059586     0.11900
H2640       H  0.26626796  0.21148210  0.86057361     0.13800
C2641       C  0.81657507  0.51645894  0.01984658    -0.01700
C2642       C  0.84026581  0.53704222  0.03125179    -0.09700
C2643       C  0.84595327  0.53342769  0.05460449    -0.18600
C2644       C  0.82838573  0.50857318  0.06702548     0.03800
C2645       C  0.80500465  0.48727736  0.05486811     0.18000
C2646       C  0.79895166  0.49166218  0.03172286    -0.20000
C2647       C  0.78812213  0.46157178  0.06570456    -0.21200
C2648       C  0.79388939  0.45654179  0.08845554    -0.19800
C2649       C  0.81610490  0.47739869  0.10124075     0.19400
C2650       C  0.83338266  0.50390579  0.09089647     0.01500
C2651       C  0.85443695  0.52476293  0.10512146    -0.14500
C2652       C  0.85807466  0.51947848  0.12860271    -0.12200
C2653       C  0.84141075  0.49316587  0.13846689     0.01100
C2654       C  0.82068361  0.47211610  0.12459491    -0.24400
H2655       H  0.85446008  0.55604227  0.02201803     0.09100
H2656       H  0.86465339  0.55011420  0.06219513     0.12600
H2657       H  0.78113138  0.47531702  0.02251875     0.11400
H2658       H  0.77049305  0.44513765  0.05641795     0.12600
H2659       H  0.78054159  0.43635002  0.09628919     0.11600
H2660       H  0.86781491  0.54560282  0.09888362     0.08700
H2661       H  0.87392360  0.53613659  0.13917569     0.11900
H2662       H  0.80722208  0.45190273  0.13238809     0.13800
C2663       C  0.91665778  0.52973713  0.22913732    -0.01700
C2664       C  0.93064081  0.55810080  0.23390281    -0.09700
C2665       C  0.95786650  0.57187539  0.24234810    -0.18600
C2666       C  0.97157935  0.55736730  0.24688221     0.03800
C2667       C  0.95661621  0.52834663  0.24296644     0.18000
C2668       C  0.92980153  0.51506907  0.23373733    -0.20000
C2669       C  0.96835242  0.51258476  0.24844829    -0.21200
C2670       C  0.99475347  0.52499023  0.25781902    -0.19800
C2671       C  0.01042154  0.55358764  0.26123322     0.19400
C2672       C  0.99936775  0.57035502  0.25541135     0.01500
C2673       C  0.01684183  0.59932074  0.25798213    -0.14500
C2674       C  0.04399939  0.61098823  0.26617753    -0.12200
C2675       C  0.05433933  0.59418337  0.27259552     0.01100
C2676       C  0.03732492  0.56550254  0.27012847    -0.24400
H2677       H  0.92066688  0.56971863  0.23069698     0.09100
H2678       H  0.96750318  0.59374201  0.24554519     0.12600
H2679       H  0.91878243  0.49295831  0.23060193     0.11400
H2680       H  0.95690768  0.49042275  0.24568908     0.12600
H2681       H  0.00314586  0.51214782  0.26209424     0.11600
H2682       H  0.01027070  0.61346762  0.25331755     0.08700
H2683       H  0.05689822  0.63323987  0.26766367     0.11900
H2684       H  0.04536949  0.55236799  0.27450690     0.13800
C2685       C  0.46355631  0.16377497  0.52011786    -0.01700
C2686       C  0.44319098  0.14021819  0.53201293    -0.09700
C2687       C  0.44583473  0.13628923  0.55613448    -0.18600
C2688       C  0.46955460  0.15553254  0.56901035     0.03800
C2689       C  0.49050270  0.17909156  0.55662995     0.18000
C2690       C  0.48700781  0.18334257  0.53259282    -0.20000
C2691       C  0.51511388  0.19786526  0.56813795    -0.21200
C2692       C  0.51962572  0.19350357  0.59156883    -0.19800
C2693       C  0.49927640  0.17074963  0.60437150     0.19400
C2694       C  0.47360618  0.15186853  0.59349236     0.01500
C2695       C  0.45304760  0.13031440  0.60768120    -0.14500
C2696       C  0.45800057  0.12735653  0.63145747    -0.12200
C2697       C  0.48370883  0.14528597  0.64179489     0.01100
C2698       C  0.50429928  0.16695318  0.62812329    -0.24400
H2699       H  0.42508392  0.12472617  0.52256302     0.09100
H2700       H  0.42939275  0.11754435  0.56399823     0.12600
H2701       H  0.50313480  0.20129423  0.52325501     0.11400
H2702       H  0.53124328  0.21577400  0.55879161     0.12600
H2703       H  0.53911099  0.20817347  0.59980165     0.11600
H2704       H  0.43270934  0.11578826  0.60107510     0.08700
H2705       H  0.44159214  0.11083583  0.64184144     0.11900
H2706       H  0.52393872  0.18145557  0.63625174     0.13800
C2707       C  0.24631805  0.05877798  0.39197481    -0.01700
C2708       C  0.25481772  0.04142427  0.40117991    -0.09700
C2709       C  0.28211382  0.05230922  0.40874942    -0.18600
C2710       C  0.30156739  0.08107755  0.40773839     0.03800
C2711       C  0.29247635  0.09843163  0.39868860     0.18000
C2712       C  0.26539588  0.08718944  0.39066479    -0.20000
C2713       C  0.31027236  0.12708330  0.39800786    -0.21200
C2714       C  0.33692460  0.13912043  0.40658620    -0.19800
C2715       C  0.34663356  0.12275140  0.41551123     0.19400
C2716       C  0.32948206  0.09345793  0.41574966     0.01500
C2717       C  0.34119160  0.07810357  0.42390531    -0.14500
C2718       C  0.36863608  0.09147406  0.43181438    -0.12200
C2719       C  0.38470872  0.12033876  0.43238754     0.01100
C2720       C  0.37358222  0.13572938  0.42418583    -0.24400
H2721       H  0.24036126  0.01937422  0.40245172     0.09100
H2722       H  0.28726770  0.03784821  0.41571878     0.12600
H2723       H  0.25892342  0.10086042  0.38392466     0.11400
H2724       H  0.30337528  0.14034532  0.39114407     0.12600
H2725       H  0.35008990  0.16143704  0.40616817     0.11600
H2726       H  0.32974992  0.05583298  0.42411021     0.08700
H2727       H  0.37712123  0.07929846  0.43792475     0.11900
H2728       H  0.38624777  0.15810982  0.42419500     0.13800
C2729       C  0.48836065  0.34656215  0.14348582    -0.01700
C2730       C  0.49430298  0.36669545  0.12625101    -0.09700
C2731       C  0.48998561  0.35971075  0.10211327    -0.18600
C2732       C  0.47956350  0.33218394  0.09439076     0.03800
C2733       C  0.47358619  0.31188600  0.11197968     0.18000
C2734       C  0.47787887  0.31916098  0.13609261    -0.20000
C2735       C  0.46352787  0.28440322  0.10544926    -0.21200
C2736       C  0.45941654  0.27656614  0.08170080    -0.19800
C2737       C  0.46500418  0.29595146  0.06386473     0.19400
C2738       C  0.47495076  0.32401708  0.06994279     0.01500
C2739       C  0.47973708  0.34260733  0.05126242    -0.14500
C2740       C  0.47482641  0.33372861  0.02768091    -0.12200
C2741       C  0.46533381  0.30616723  0.02173878     0.01100
C2742       C  0.46062354  0.28739329  0.03994960    -0.24400
H2743       H  0.50254206  0.38799960  0.13140240     0.09100
H2744       H  0.49522862  0.37638851  0.08993482     0.12600
H2745       H  0.47323003  0.30328372  0.14917163     0.11400
H2746       H  0.45894565  0.26884542  0.11882465     0.12600
H2747       H  0.45174126  0.25515152  0.07725827     0.11600
H2748       H  0.48715911  0.36414539  0.05426743     0.08700
H2749       H  0.47891780  0.34873368  0.01391932     0.11900
H2750       H  0.45322881  0.26601889  0.03552902     0.13800
C2751       C  0.60646810  0.41903467  0.19124910    -0.01700
C2752       C  0.61652894  0.40582415  0.17710837    -0.09700
C2753       C  0.64504128  0.41766984  0.17373377    -0.18600
C2754       C  0.66425645  0.44289723  0.18494249     0.03800
C2755       C  0.65361645  0.45726550  0.19745369     0.18000
C2756       C  0.62498583  0.44526757  0.20041422    -0.20000
C2757       C  0.67156994  0.48263394  0.20833819    -0.21200
C2758       C  0.69986249  0.49315205  0.20861379    -0.19800
C2759       C  0.71082839  0.47837037  0.19829116     0.19400
C2760       C  0.69335861  0.45345083  0.18563781     0.01500
C2761       C  0.70550293  0.43911972  0.17591888    -0.14500
C2762       C  0.73314667  0.44791326  0.18033710    -0.12200
C2763       C  0.74965802  0.47154058  0.19393090     0.01100
C2764       C  0.73877214  0.48728542  0.20209245    -0.24400
H2765       H  0.60242572  0.38548495  0.16993485     0.09100
H2766       H  0.65141544  0.40600807  0.16319527     0.12600
H2767       H  0.61709506  0.45552329  0.21127787     0.11400
H2768       H  0.66356384  0.49386632  0.21757312     0.12600
H2769       H  0.71308344  0.51229042  0.21802544     0.11600
H2770       H  0.69382306  0.42022910  0.16599078     0.08700
H2771       H  0.74126125  0.43532440  0.17422379     0.11900
H2772       H  0.75150489  0.50531410  0.21300271     0.13800
C2773       C  0.45136536  0.22915214  0.39004067    -0.01700
C2774       C  0.46283763  0.25750077  0.39342704    -0.09700
C2775       C  0.46501108  0.27447954  0.37461818    -0.18600
C2776       C  0.45629772  0.26353480  0.35156466     0.03800
C2777       C  0.44208970  0.23431134  0.34882251     0.18000
C2778       C  0.43980380  0.21737763  0.36805781    -0.20000
C2779       C  0.43193691  0.22240546  0.32654903    -0.21200
C2780       C  0.43692268  0.23893937  0.30666670    -0.19800
C2781       C  0.45283481  0.26777720  0.30845717     0.19400
C2782       C  0.46255081  0.28055010  0.33098194     0.01500
C2783       C  0.47982836  0.30970628  0.33165596    -0.14500
C2784       C  0.48814415  0.32527585  0.31075670    -0.12200
C2785       C  0.47870631  0.31248884  0.28873151     0.01100
C2786       C  0.46046141  0.28387979  0.28767384    -0.24400
H2787       H  0.47191698  0.26685987  0.41037423     0.09100
H2788       H  0.47463198  0.29619690  0.37847046     0.12600
H2789       H  0.43114470  0.19541658  0.36540416     0.11400
H2790       H  0.42075235  0.20016539  0.32435732     0.12600
H2791       H  0.42937225  0.22908027  0.28957168     0.11600
H2792       H  0.48840991  0.32096502  0.34791159     0.08700
H2793       H  0.50255426  0.34736914  0.31173591     0.11900
H2794       H  0.45369081  0.27397693  0.27047547     0.13800
C2795       C  0.44950120  0.38608675  0.23093804    -0.01700
C2796       C  0.42528262  0.37881290  0.21851591    -0.09700
C2797       C  0.40834719  0.38901713  0.22565967    -0.18600
C2798       C  0.41502678  0.40652617  0.24575480     0.03800
C2799       C  0.43869220  0.41217918  0.25905832     0.18000
C2800       C  0.45567518  0.40232096  0.25142300    -0.20000
C2801       C  0.44581268  0.42828466  0.27964708    -0.21200
C2802       C  0.43066038  0.43997121  0.28687859    -0.19800
C2803       C  0.40829802  0.43632814  0.27346983     0.19400
C2804       C  0.39975938  0.41927164  0.25289573     0.01500
C2805       C  0.37710451  0.41677331  0.24003512    -0.14500
C2806       C  0.36452481  0.43170660  0.24670873    -0.12200
C2807       C  0.37393989  0.44938901  0.26647322     0.01100
C2808       C  0.39525312  0.45072348  0.28011765    -0.24400
H2809       H  0.42005252  0.36617236  0.20269251     0.09100
H2810       H  0.39038542  0.38320946  0.21499428     0.12600
H2811       H  0.47418752  0.40768179  0.26132628     0.11400
H2812       H  0.46357713  0.43229706  0.29003556     0.12600
H2813       H  0.43708967  0.45275912  0.30268686     0.11600
H2814       H  0.36932047  0.40416541  0.22430223     0.08700
H2815       H  0.34807303  0.43018022  0.23584947     0.11900
H2816       H  0.40259031  0.46399962  0.29562652     0.13800
C2817       C  0.78059712  0.73240121  0.40043095    -0.01700
C2818       C  0.75487957  0.71371240  0.39058322    -0.09700
C2819       C  0.73997709  0.68618585  0.39841422    -0.18600
C2820       C  0.75045354  0.67677095  0.41651570     0.03800
C2821       C  0.77591222  0.69644729  0.42718242     0.18000
C2822       C  0.79058241  0.72372800  0.41906469    -0.20000
C2823       C  0.78707897  0.68874369  0.44552798    -0.21200
C2824       C  0.77391310  0.66155832  0.45315126    -0.19800
C2825       C  0.74942429  0.64138130  0.44244089     0.19400
C2826       C  0.73709128  0.64859904  0.42413631     0.01500
C2827       C  0.71245168  0.62713657  0.41387331    -0.14500
C2828       C  0.70115392  0.59965002  0.42097751    -0.12200
C2829       C  0.71390578  0.59270598  0.43858247     0.01100
C2830       C  0.73770286  0.61383185  0.44954530    -0.24400
H2831       H  0.74680587  0.72010024  0.37621590     0.09100
H2832       H  0.72057279  0.67269514  0.38976121     0.12600
H2833       H  0.81032394  0.73831131  0.42703770     0.11400
H2834       H  0.80638313  0.70379621  0.45381167     0.12600
H2835       H  0.78330423  0.65616485  0.46717401     0.11600
H2836       H  0.70181783  0.63085386  0.39994282     0.08700
H2837       H  0.68274225  0.58370129  0.41219417     0.11900
H2838       H  0.74772071  0.60876834  0.46325728     0.13800
C2839       C  0.68151880  0.51402209  0.52237040    -0.01700
C2840       C  0.67902481  0.53494282  0.53309896    -0.09700
C2841       C  0.67076397  0.53287977  0.55685881    -0.18600
C2842       C  0.66371330  0.50915834  0.57053390     0.03800
C2843       C  0.66603887  0.48781492  0.55945051     0.18000
C2844       C  0.67557528  0.49074231  0.53578701    -0.20000
C2845       C  0.65785709  0.46327046  0.57176681    -0.21200
C2846       C  0.64661787  0.45908069  0.59455384    -0.19800
C2847       C  0.64410021  0.47967955  0.60598108     0.19400
C2848       C  0.65348466  0.50539575  0.59445959     0.01500
C2849       C  0.65225044  0.52618600  0.60744891    -0.14500
C2850       C  0.64159052  0.52138381  0.63062471    -0.12200
C2851       C  0.63115771  0.49558514  0.64146897     0.01100
C2852       C  0.63251170  0.47481486  0.62899960    -0.24400
H2853       H  0.68325542  0.55294386  0.52291542     0.09100
H2854       H  0.66903293  0.54969849  0.56372835     0.12600
H2855       H  0.67690733  0.47421825  0.52736799     0.11400
H2856       H  0.65947832  0.44687193  0.56347057     0.12600
H2857       H  0.63990912  0.43957877  0.60334245     0.11600
H2858       H  0.65991784  0.54657378  0.60036237     0.08700
H2859       H  0.64142556  0.53796100  0.64012300     0.11900
H2860       H  0.62540876  0.45510536  0.63758577     0.13800
C2861       C  0.76565394  0.53408074  0.39205990    -0.01700
C2862       C  0.76388317  0.54721165  0.37174922    -0.09700
C2863       C  0.77626841  0.54631823  0.35036485    -0.18600
C2864       C  0.79019972  0.53156621  0.34870528     0.03800
C2865       C  0.79388594  0.52047853  0.37001963     0.18000
C2866       C  0.78199673  0.52220243  0.39138697    -0.20000
C2867       C  0.80741729  0.50568599  0.36960258    -0.21200
C2868       C  0.81564663  0.49985231  0.34820622    -0.19800
C2869       C  0.81073424  0.50884677  0.32672161     0.19400
C2870       C  0.79890066  0.52571593  0.32663088     0.01500
C2871       C  0.79502799  0.53468613  0.30435102    -0.14500
C2872       C  0.80122311  0.52600645  0.28313655    -0.12200
C2873       C  0.81129698  0.50804032  0.28339152     0.01100
C2874       C  0.81661176  0.50010173  0.30527952    -0.24400
H2875       H  0.75092837  0.55608351  0.37186061     0.09100
H2876       H  0.77308557  0.55581593  0.33514991     0.12600
H2877       H  0.78303425  0.51169846  0.40708187     0.11400
H2878       H  0.81052488  0.49746302  0.38585593     0.12600
H2879       H  0.82506333  0.48738372  0.34841421     0.11600
H2880       H  0.78666253  0.54788922  0.30272939     0.08700
H2881       H  0.79704227  0.53251189  0.26641670     0.11900
H2882       H  0.82475682  0.48649696  0.30562323     0.13800
C2883       C  0.64312413  0.49348992  0.37437310    -0.01700
C2884       C  0.65715355  0.49865515  0.35263185    -0.09700
C2885       C  0.64292764  0.49304291  0.33118789    -0.18600
C2886       C  0.61393203  0.48121404  0.33092640     0.03800
C2887       C  0.60012909  0.47745227  0.35304121     0.18000
C2888       C  0.61490207  0.48435011  0.37436992    -0.20000
C2889       C  0.57134786  0.46479999  0.35393027    -0.21200
C2890       C  0.55568487  0.45326320  0.33361877    -0.19800
C2891       C  0.56855310  0.45504198  0.31186073     0.19400
C2892       C  0.59786680  0.47070911  0.30984566     0.01500
C2893       C  0.60970186  0.47342954  0.28705883    -0.14500
C2894       C  0.59330950  0.45822641  0.26785964    -0.12200
C2895       C  0.56490504  0.44007317  0.27089390     0.01100
C2896       C  0.55240105  0.43958552  0.29250201    -0.24400
H2897       H  0.67906869  0.50613084  0.35218927     0.09100
H2898       H  0.65491968  0.49660239  0.31521267     0.12600
H2899       H  0.60387553  0.48037944  0.39110982     0.11400
H2900       H  0.56075765  0.46219856  0.37070753     0.12600
H2901       H  0.53334728  0.44193676  0.33512321     0.11600
H2902       H  0.63160643  0.48619735  0.28377395     0.08700
H2903       H  0.60320402  0.45889830  0.25114583     0.11900
H2904       H  0.53029434  0.42566496  0.29468638     0.13800
C2905       C  0.61759151  0.41911636  0.45771823    -0.01700
C2906       C  0.58947938  0.40873315  0.46150152    -0.09700
C2907       C  0.57114916  0.38024673  0.46428028    -0.18600
C2908       C  0.58068660  0.36151049  0.46327500     0.03800
C2909       C  0.60960127  0.37272097  0.46094279     0.18000
C2910       C  0.62756984  0.40116577  0.45816659    -0.20000
C2911       C  0.62041048  0.35544767  0.46023796    -0.21200
C2912       C  0.60296698  0.32697912  0.46050433    -0.19800
C2913       C  0.57431910  0.31514246  0.46140871     0.19400
C2914       C  0.56270497  0.33214052  0.46341571     0.01500
C2915       C  0.53360595  0.31895183  0.46440959    -0.14500
C2916       C  0.51684721  0.29030797  0.46212994    -0.12200
C2917       C  0.52846262  0.27385703  0.45890272     0.01100
C2918       C  0.55722700  0.28638398  0.45929931    -0.24400
H2919       H  0.58150765  0.42245296  0.46106514     0.09100
H2920       H  0.54961454  0.37346942  0.46644133     0.12600
H2921       H  0.64942719  0.40934690  0.45522971     0.11400
H2922       H  0.64250171  0.36401733  0.45876081     0.12600
H2923       H  0.61192672  0.31413034  0.45924568     0.11600
H2924       H  0.52316395  0.33024677  0.46622137     0.08700
H2925       H  0.49463824  0.28114751  0.46194995     0.11900
H2926       H  0.56642140  0.27383458  0.45699708     0.13800
C2927       C  0.84047730  0.36608219  0.63665114    -0.01700
C2928       C  0.82234033  0.36954447  0.62240388    -0.09700
C2929       C  0.81760118  0.36035642  0.59885922    -0.18600
C2930       C  0.83130790  0.34776009  0.58874436     0.03800
C2931       C  0.85155814  0.34665261  0.60266170     0.18000
C2932       C  0.85548256  0.35517641  0.62652439    -0.20000
C2933       C  0.86741764  0.33662025  0.59278872    -0.21200
C2934       C  0.86327552  0.32721082  0.56944397    -0.19800
C2935       C  0.84226750  0.32633630  0.55579666     0.19400
C2936       C  0.82558418  0.33609319  0.56542183     0.01500
C2937       C  0.80323866  0.33274412  0.55164440    -0.14500
C2938       C  0.79794454  0.32050618  0.52918458    -0.12200
C2939       C  0.81511891  0.31197506  0.51950471     0.01100
C2940       C  0.83745458  0.31523962  0.53272129    -0.24400
H2941       H  0.81082921  0.37828060  0.62980961     0.09100
H2942       H  0.80312284  0.36337392  0.58899324     0.12600
H2943       H  0.87005770  0.35306399  0.63734483     0.11400
H2944       H  0.88318716  0.33610758  0.60318065     0.12600
H2945       H  0.87601125  0.31973833  0.56226955     0.11600
H2946       H  0.78909559  0.33872738  0.55800826     0.08700
H2947       H  0.78072489  0.31832909  0.51903214     0.11900
H2948       H  0.85069287  0.30852960  0.52520481     0.13800
C2949       C  0.82648575  0.34466229  0.37280652    -0.01700
C2950       C  0.84920253  0.37173889  0.37106815    -0.09700
C2951       C  0.85579912  0.38615117  0.34948905    -0.18600
C2952       C  0.83956786  0.37390176  0.32898428     0.03800
C2953       C  0.81745698  0.34594262  0.33068158     0.18000
C2954       C  0.81141414  0.33166583  0.35226174    -0.20000
C2955       C  0.80052432  0.33265163  0.31114806    -0.21200
C2956       C  0.80397654  0.34697885  0.29026159    -0.19800
C2957       C  0.82452809  0.37488252  0.28839648     0.19400
C2958       C  0.84335090  0.38863648  0.30729635     0.01500
C2959       C  0.86403452  0.41684482  0.30397586    -0.14500
C2960       C  0.86414160  0.43130202  0.28373204    -0.12200
C2961       C  0.84384894  0.41790715  0.26638369     0.01100
C2962       C  0.82512736  0.38950498  0.26824230    -0.24400
H2963       H  0.86128979  0.38223455  0.38664700     0.09100
H2964       H  0.87307026  0.40713172  0.34960915     0.12600
H2965       H  0.79395301  0.31063026  0.35327148     0.11400
H2966       H  0.78380856  0.31128040  0.31231812     0.12600
H2967       H  0.78981329  0.33640787  0.27575228     0.11600
H2968       H  0.87957935  0.42850604  0.31713831     0.08700
H2969       H  0.87888521  0.45329292  0.28242264     0.11900
H2970       H  0.80965802  0.37909491  0.25454432     0.13800
C2971       C  0.69982058  0.25198875  0.46582081    -0.01700
C2972       C  0.68781850  0.26744652  0.47181652    -0.09700
C2973       C  0.65912216  0.25478620  0.47373589    -0.18600
C2974       C  0.64144014  0.22626353  0.46887659     0.03800
C2975       C  0.65382855  0.21065382  0.46312539     0.18000
C2976       C  0.68269452  0.22341688  0.46234050    -0.20000
C2977       C  0.63739583  0.18274447  0.45688033    -0.21200
C2978       C  0.60889578  0.17029200  0.45500387    -0.19800
C2979       C  0.59607081  0.18522021  0.46002349     0.19400
C2980       C  0.61203489  0.21307270  0.46805297     0.01500
C2981       C  0.59792367  0.22682665  0.47395170    -0.14500
C2982       C  0.56965670  0.21437032  0.46991512    -0.12200
C2983       C  0.55458021  0.18784765  0.46025106     0.01100
C2984       C  0.56755827  0.17294425  0.45600612    -0.24400
H2985       H  0.70064690  0.28955480  0.47445217     0.09100
H2986       H  0.65141114  0.26815811  0.47791073     0.12600
H2987       H  0.69179856  0.21134960  0.45730865     0.11400
H2988       H  0.64675865  0.17076212  0.45245374     0.12600
H2989       H  0.59686312  0.14899452  0.44914997     0.11600
H2990       H  0.60824851  0.24745834  0.48112874     0.08700
H2991       H  0.55973292  0.22605276  0.47330215     0.11900
H2992       H  0.55578541  0.15241963  0.44836488     0.13800
C2993       C  0.78906351  0.37032433  0.46315298    -0.01700
C2994       C  0.76215028  0.35920494  0.47172004    -0.09700
C2995       C  0.75158883  0.37610596  0.47624454    -0.18600
C2996       C  0.76760603  0.40474842  0.47160189     0.03800
C2997       C  0.79586516  0.41625828  0.46511274     0.18000
C2998       C  0.80641801  0.39893018  0.46103389    -0.20000
C2999       C  0.81278696  0.44468546  0.46116922    -0.21200
C3000       C  0.80177540  0.46164202  0.46184428    -0.19800
C3001       C  0.77351758  0.45045747  0.46608069     0.19400
C3002       C  0.75612589  0.42196166  0.47159732     0.01500
C3003       C  0.72757675  0.41150596  0.47504427    -0.14500
C3004       C  0.71652690  0.42815955  0.47139650    -0.12200
C3005       C  0.73357843  0.45586394  0.46494799     0.01100
C3006       C  0.76220767  0.46721722  0.46332796    -0.24400
H3007       H  0.74871773  0.33706377  0.47377622     0.09100
H3008       H  0.73049189  0.36592545  0.48239089     0.12600
H3009       H  0.82733699  0.40743190  0.45442841     0.11400
H3010       H  0.83442735  0.45369093  0.45662817     0.12600
H3011       H  0.81518233  0.48341450  0.45785641     0.11600
H3012       H  0.71297055  0.39024325  0.47939784     0.08700
H3013       H  0.69439412  0.41910300  0.47299959     0.11900
H3014       H  0.77549585  0.48866736  0.45817093     0.13800
C3015       C  0.85449996  0.26852443  0.43481777    -0.01700
C3016       C  0.88244555  0.28498137  0.42855974    -0.09700
C3017       C  0.89777193  0.27284017  0.42227248    -0.18600
C3018       C  0.88521956  0.24374462  0.42141420     0.03800
C3019       C  0.85656793  0.22733222  0.42699437     0.18000
C3020       C  0.84182566  0.23975778  0.43415682    -0.20000
C3021       C  0.84253987  0.19857164  0.42494752    -0.21200
C3022       C  0.85622840  0.18564127  0.41700556    -0.19800
C3023       C  0.88451045  0.20107206  0.41185276     0.19400
C3024       C  0.89971401  0.23025655  0.41465365     0.01500
C3025       C  0.92867622  0.24443401  0.41075472    -0.14500
C3026       C  0.94171572  0.23017769  0.40368407    -0.12200
C3027       C  0.92616148  0.20165956  0.39972906     0.01100
C3028       C  0.89765959  0.18730945  0.40397929    -0.24400
H3029       H  0.89253891  0.30728556  0.42880572     0.09100
H3030       H  0.91917595  0.28666003  0.41760597     0.12600
H3031       H  0.82002684  0.22691975  0.43851713     0.11400
H3032       H  0.82066710  0.18601462  0.42903638     0.12600
H3033       H  0.84465328  0.16335580  0.41510787     0.11600
H3034       H  0.94174587  0.26641278  0.41336320     0.08700
H3035       H  0.96385805  0.24152970  0.40076799     0.11900
H3036       H  0.88565528  0.16508435  0.40150018     0.13800
C3037       C  0.66852344  0.16615353  0.01872658    -0.01700
C3038       C  0.68844902  0.16981263  0.03534625    -0.09700
C3039       C  0.68190446  0.16536850  0.05964451    -0.18600
C3040       C  0.65507868  0.15720984  0.06815870     0.03800
C3041       C  0.63517395  0.15412551  0.05124681     0.18000
C3042       C  0.64196566  0.15845481  0.02698490    -0.20000
C3043       C  0.60850844  0.14671951  0.05857937    -0.21200
C3044       C  0.60108808  0.14233276  0.08245631    -0.19800
C3045       C  0.62002698  0.14491013  0.09962580     0.19400
C3046       C  0.64722944  0.15211178  0.09274350     0.01500
C3047       C  0.66524690  0.15370800  0.11078114    -0.14500
C3048       C  0.65672853  0.14869856  0.13454954    -0.12200
C3049       C  0.63011945  0.14220169  0.14131332     0.01100
C3050       C  0.61186775  0.14033101  0.12368000    -0.24400
H3051       H  0.70913510  0.17593163  0.02954995     0.09100
H3052       H  0.69831529  0.16859426  0.07132910     0.12600
H3053       H  0.62633954  0.15587307  0.01444438     0.11400
H3054       H  0.59326757  0.14440217  0.04573455     0.12600
H3055       H  0.58031846  0.13676766  0.08751767     0.11600
H3056       H  0.68603557  0.15869238  0.10708904     0.08700
H3057       H  0.67132885  0.15042371  0.14779966     0.11900
H3058       H  0.59119276  0.13517957  0.12866439     0.13800
C3059       C  0.57326754  0.19700014  0.19787834    -0.01700
C3060       C  0.54498120  0.18677080  0.20088618    -0.09700
C3061       C  0.53484882  0.20469360  0.20048997    -0.18600
C3062       C  0.55294437  0.23352188  0.19736841     0.03800
C3063       C  0.58128720  0.24327691  0.19273639     0.18000
C3064       C  0.59094062  0.22500033  0.19259592    -0.20000
C3065       C  0.60028743  0.27147508  0.18963834    -0.21200
C3066       C  0.59207839  0.29051989  0.19222676    -0.19800
C3067       C  0.56462251  0.28180448  0.19777111     0.19400
C3068       C  0.54440845  0.25319527  0.19979452     0.01500
C3069       C  0.51688547  0.24577942  0.20505334    -0.14500
C3070       C  0.51016070  0.26599412  0.20941496    -0.12200
C3071       C  0.53056612  0.29412805  0.20860389     0.01100
C3072       C  0.55756320  0.30175237  0.20207311    -0.24400
H3073       H  0.53091035  0.16516674  0.20503701     0.09100
H3074       H  0.51303695  0.19559074  0.20375476     0.12600
H3075       H  0.61274613  0.23294927  0.18978417     0.11400
H3076       H  0.62188117  0.27895136  0.18600715     0.12600
H3077       H  0.60748927  0.31230312  0.19045828     0.11600
H3078       H  0.50025493  0.22456046  0.20640439     0.08700
H3079       H  0.48907621  0.25953954  0.21413759     0.11900
H3080       H  0.57349076  0.32345240  0.20094442     0.13800
C3081       C  0.74060387  0.22017089  0.39539666    -0.01700
C3082       C  0.71176764  0.20534594  0.39694358    -0.09700
C3083       C  0.69567930  0.19052984  0.37757730    -0.18600
C3084       C  0.70810189  0.19068742  0.35568646     0.03800
C3085       C  0.73736774  0.20334616  0.35496848     0.18000
C3086       C  0.75341069  0.21797453  0.37485435    -0.20000
C3087       C  0.75043471  0.20282846  0.33393902    -0.21200
C3088       C  0.73526104  0.19150910  0.31324952    -0.19800
C3089       C  0.70675964  0.18106943  0.31292949     0.19400
C3090       C  0.69269928  0.18012600  0.33425216     0.01500
C3091       C  0.66414157  0.17037511  0.33288888    -0.14500
C3092       C  0.65046063  0.16311251  0.31116775    -0.12200
C3093       C  0.66450589  0.16486868  0.29003931     0.01100
C3094       C  0.69250347  0.17298712  0.29118344    -0.24400
H3095       H  0.70159260  0.20676515  0.41279096     0.09100
H3096       H  0.67362733  0.18016009  0.38004678     0.12600
H3097       H  0.77578247  0.22961537  0.37360184     0.11400
H3098       H  0.77264916  0.21199341  0.33329684     0.12600
H3099       H  0.74611213  0.19209381  0.29712112     0.11600
H3100       H  0.65197057  0.16923300  0.34811264     0.08700
H3101       H  0.62884325  0.15684997  0.31087668     0.11900
H3102       H  0.70365495  0.17459477  0.27494799     0.13800
C3103       C  0.54035841  0.11788097  0.26903603    -0.01700
C3104       C  0.54145366  0.10456112  0.28948590    -0.09700
C3105       C  0.52688238  0.10372031  0.31001554    -0.18600
C3106       C  0.51129315  0.11682251  0.31065318     0.03800
C3107       C  0.50853255  0.12817796  0.28909317     0.18000
C3108       C  0.52275542  0.12829609  0.26857172    -0.20000
C3109       C  0.49352685  0.14147764  0.28856637    -0.21200
C3110       C  0.48316223  0.14592128  0.30940806    -0.19800
C3111       C  0.48732533  0.13691677  0.33121692     0.19400
C3112       C  0.50024396  0.12107710  0.33210088     0.01500
C3113       C  0.50302978  0.11177901  0.35461955    -0.14500
C3114       C  0.49565279  0.12003038  0.37544035    -0.12200
C3115       C  0.48526000  0.13770348  0.37448694     0.01100
C3116       C  0.48004280  0.14504894  0.35225606    -0.24400
H3117       H  0.55530550  0.09675029  0.29019508     0.09100
H3118       H  0.52963125  0.09424095  0.32547373     0.12600
H3119       H  0.52220472  0.13888664  0.25274066     0.11400
H3120       H  0.49105554  0.14981360  0.27209857     0.12600
H3121       H  0.47284845  0.15752551  0.30857843     0.11600
H3122       H  0.51172612  0.09892278  0.35676516     0.08700
H3123       H  0.49953254  0.11375402  0.39240928     0.11900
H3124       H  0.47147748  0.15826849  0.35133728     0.13800
C3125       C  0.77271199  0.37862068  0.19191683    -0.01700
C3126       C  0.74406030  0.36697609  0.19121041    -0.09700
C3127       C  0.72627035  0.33847391  0.18975118    -0.18600
C3128       C  0.73659156  0.32048035  0.18934054     0.03800
C3129       C  0.76563829  0.33239010  0.18757120     0.18000
C3130       C  0.78342329  0.36128247  0.18881212    -0.20000
C3131       C  0.77670459  0.31531281  0.18590741    -0.21200
C3132       C  0.75963520  0.28667231  0.18751708    -0.19800
C3133       C  0.73117881  0.27446257  0.19141598     0.19400
C3134       C  0.71923682  0.29125488  0.19192972     0.01500
C3135       C  0.69071407  0.27835657  0.19689062    -0.14500
C3136       C  0.67521161  0.25053047  0.20273614    -0.12200
C3137       C  0.68703428  0.23417716  0.20289185     0.01100
C3138       C  0.71480388  0.24587792  0.19627989    -0.24400
H3139       H  0.73520609  0.37987416  0.19288141     0.09100
H3140       H  0.70450935  0.33119128  0.18965968     0.12600
H3141       H  0.80560040  0.37007225  0.18890936     0.11400
H3142       H  0.79880820  0.32420549  0.18410051     0.12600
H3143       H  0.76893906  0.27411005  0.18687741     0.11600
H3144       H  0.67998723  0.28943109  0.19777323     0.08700
H3145       H  0.65386528  0.24186594  0.20796077     0.11900
H3146       H  0.72406159  0.23326088  0.19660928     0.13800
C3147       C  0.59301541  0.06063050  0.22640565    -0.01700
C3148       C  0.60946409  0.05168747  0.23679916    -0.09700
C3149       C  0.59775154  0.02422971  0.24442115    -0.18600
C3150       C  0.56897938  0.00511821  0.24245463     0.03800
C3151       C  0.55255104  0.01460171  0.23209870     0.18000
C3152       C  0.56469224  0.04171691  0.22375523    -0.20000
C3153       C  0.52385478  0.99730786  0.23078138    -0.21200
C3154       C  0.51084217  0.97093928  0.24027181    -0.19800
C3155       C  0.52629818  0.96084949  0.25047345     0.19400
C3156       C  0.55564447  0.97728741  0.25102775     0.01500
C3157       C  0.57008639  0.96500745  0.26009686    -0.14500
C3158       C  0.55577620  0.93778079  0.26874762    -0.12200
C3159       C  0.52685979  0.92256437  0.26925006     0.01100
C3160       C  0.51236910  0.93422594  0.26006866    -0.24400
H3161       H  0.63139900  0.06598212  0.23915716     0.09100
H3162       H  0.61148257  0.01875710  0.25248360     0.12600
H3163       H  0.55165636  0.04848243  0.21610393     0.11400
H3164       H  0.51128150  0.00450385  0.22293774     0.12600
H3165       H  0.48849339  0.95828371  0.23953347     0.11600
H3166       H  0.59234989  0.97581949  0.26037735     0.08700
H3167       H  0.56726716  0.92882388  0.27550008     0.11900
H3168       H  0.48995957  0.92219269  0.25995584     0.13800
loop_ 
_geom_bond_atom_site_label_1 
_geom_bond_atom_site_label_2 
_geom_bond_distance 
_geom_bond_site_symmetry_2 
_ccdc_geom_bond_type 
O1          Cr19   1.994       .  S
O1            C9   1.262       .  A
O2          Cr19   1.970       .  S
O2            C3   1.260       .  A
C3            O4   1.270       .  A
C3         C3093   1.484       .  S
O4          Cr20   2.024       .  S
O5          Cr20   1.990       .  S
O5            C6   1.264       .  A
C6            O7   1.268       .  A
C6         C3147   1.482       .  S
O7          Cr21   2.001       .  S
O8          Cr21   1.999       .  S
O8            C9   1.263       .  A
C9         C3103   1.469       .  S
O10         Cr19   1.965       .  S
O10          C18   1.257       .  A
O11         Cr19   1.990       .  S
O11          C12   1.262       .  A
C12          O13   1.261       .  A
C12        C3137   1.472       .  S
O13         Cr20   1.996       .  S
O14         Cr20   2.006       .  S
O14          C15   1.267       .  A
C15          O16   1.265       .  A
C15        C3049   1.486       .  S
O16         Cr21   1.989       .  S
O17         Cr21   2.027       .  S
O17          C18   1.268       .  A
C18        C3059   1.478       .  S
Cr19         O22   1.757       .  S
Cr20         O22   1.776       .  S
Cr21         O22   1.772       .  S
O23         Cr41   1.999       .  S
O23          C31   1.266       .  A
O24         Cr41   2.001       .  S
O24          C25   1.266       .  A
C25          O26   1.264       .  A
C25        C3015   1.476       .  S
O26         Cr42   1.986       .  S
O27         Cr42   2.021       .  S
O27          C28   1.268       .  A
C28          O29   1.259       .  A
C28        C2949   1.483       .  S
O29         Cr43   1.966       .  S
O30         Cr43   1.993       .  S
O30          C31   1.265       .  A
C31        C3081   1.468       .  S
O32         Cr41   2.005       .  S
O32          C40   1.263       .  A
O33         Cr41   1.988       .  S
O33          C34   1.263       .  A
C34          O35   1.265       .  A
C34        C2939   1.471       .  S
O35         Cr42   2.008       .  S
O36         Cr42   1.984       .  S
O36          C37   1.259       .  A
C37          O38   1.262       .  A
C37        C2993   1.460       .  S
O38         Cr43   1.990       .  S
O39         Cr43   1.982       .  S
O39          C40   1.259       .  A
C40        C2971   1.478       .  S
Cr41         O44   1.767       .  S
Cr42         O44   1.780       .  S
Cr43         O44   1.759       .  S
O45         Cr63   2.007       .  S
O45          C53   1.264       .  A
O46         Cr63   2.004       .  S
O46          C47   1.267       .  A
C47          O48   1.261       .  A
C47        C2829   1.480       .  S
O48         Cr64   1.979       .  S
O49         Cr64   2.010       .  S
O49          C50   1.268       .  A
C50          O51   1.261       .  A
C50        C2883   1.478       .  S
O51         Cr65   1.978       .  S
O52         Cr65   1.986       .  S
O52          C53   1.260       .  A
C53        C2861   1.470       .  S
O54         Cr63   2.008       .  S
O54          C62   1.266       .  A
O55         Cr63   1.998       .  S
O55          C56   1.263       .  A
C56          O57   1.266       .  A
C56        C2839   1.480       .  S
O57         Cr64   2.011       .  S
O58         Cr64   1.994       .  S
O58          C59   1.262       .  A
C59          O60   1.261       .  A
C59        C2905   1.466       .  S
O60         Cr65   1.987       .  S
O61         Cr65   1.974       .  S
O61          C62   1.261       .  A
C62        C3005   1.472       .  S
Cr63         O66   1.766       .  S
Cr64         O66   1.772       .  S
Cr65         O66   1.759       .  S
O67         Cr85   1.965       .  S
O67          C75   1.259       .  A
O68         Cr85   2.002       .  S
O68          C69   1.261       .  A
C69          O70   1.256       .  A
C69        C2785   1.469       .  S
O70         Cr86   1.979       .  S
O71         Cr86   2.036       .  S
O71          C72   1.272       .  A
C72          O73   1.259       .  A
C72        C2795   1.486       .  S
O73         Cr87   1.970       .  S
O74         Cr87   2.026       .  S
O74          C75   1.269       .  A
C75        C2895   1.464       .  S
O76         Cr85   2.006       .  S
O76          C84   1.263       .  A
O77         Cr85   1.961       .  S
O77          C78   1.261       .  A
C78          O79   1.274       .  A
C78        C3071   1.484       .  S
O79         Cr86   2.033       .  S
O80         Cr86   1.956       .  S
O80          C81   1.255       .  A
C81          O82   1.269       .  A
C81        C2729   1.486       .  S
O82         Cr87   2.024       .  S
O83         Cr87   1.995       .  S
O83          C84   1.261       .  A
C84        C2751   1.471       .  S
Cr85         O88   1.762       .  S
Cr86         O88   1.776       .  S
Cr87         O88   1.775       .  S
O89        Cr107   1.995       .  S
O89          C97   1.263       .  A
O90        Cr107   2.000       .  S
O90          C91   1.267       .  A
C91          O92   1.263       .  A
C91        C2719   1.470       .  S
O92        Cr108   1.985       .  S
O93        Cr108   2.020       .  S
O93          C94   1.268       .  A
C94          O95   1.260       .  A
C94        C3115   1.482       .  S
O95        Cr109   1.977       .  S
O96        Cr109   1.991       .  S
O96          C97   1.263       .  A
C97        C2773   1.466       .  S
O98        Cr107   2.001       .  S
O98         C106   1.264       .  A
O99        Cr107   1.990       .  S
O99         C100   1.261       .  A
C100        O101   1.265       .  A
C100       C2685   1.477       .  S
O101       Cr108   2.012       .  S
O102       Cr108   1.989       .  S
O102        C103   1.262       .  A
C103        O104   1.263       .  A
C103       C2983   1.463       .  S
O104       Cr109   1.997       .  S
O105       Cr109   1.979       .  S
O105        C106   1.261       .  A
C106       C2917   1.479       .  S
Cr107       O110   1.768       .  S
Cr108       O110   1.778       .  S
Cr109       O110   1.761       .  S
O111       Cr129   1.993       .  S
O111        C119   1.265       .  A
O112       Cr129   1.980       .  S
O112        C113   1.261       .  A
C113        O114   1.267       .  A
C113       C2873   1.482       .  S
O114       Cr130   2.017       .  S
O115       Cr130   1.990       .  S
O115        C116   1.264       .  A
C116        O117   1.267       .  A
C116       C2663   1.477       .  S
O117       Cr131   2.002       .  S
O118       Cr131   1.992       .  S
O118        C119   1.262       .  A
C119       C2961   1.469       .  S
O120       Cr129   1.978       .  S
O120        C128   1.261       .  A
O121       Cr129   1.999       .  S
O121        C122   1.264       .  A
C122        O123   1.262       .  A
C122       C2763   1.468       .  S
O123       Cr130   1.993       .  S
O124       Cr130   2.006       .  S
O124        C125   1.265       .  A
C125        O126   1.261       .  A
C125       C2653   1.475       .  S
O126       Cr131   1.983       .  S
O127       Cr131   2.013       .  S
O127        C128   1.265       .  A
C128       C3125   1.483       .  S
Cr129       O132   1.758       .  S
Cr130       O132   1.776       .  S
Cr131       O132   1.771       .  S
O133       Cr151   1.993       .  S
O133        C141   1.262       .  A
O134       Cr151   1.982       .  S
O134        C135   1.262       .  A
C135        O136   1.266       .  A
C135       C2565   1.483       .  S
O136       Cr152   2.008       .  S
O137       Cr152   1.979       .  S
O137        C138   1.262       .  A
C138        O139   1.268       .  A
C138       C2619   1.470       .  S
O139       Cr153   2.013       .  S
O140       Cr153   1.998       .  S
O140        C141   1.262       .  A
C141       C2531   1.469       .  S
O142       Cr151   1.963       .  S
O142        C150   1.258       .  A
O143       Cr151   1.989       .  S
O143        C144   1.262       .  A
C144        O145   1.263       .  A
C144       C2597   1.470       .  S
O145       Cr152   1.996       .  S
O146       Cr152   1.999       .  S
O146        C147   1.264       .  A
C147        O148   1.263       .  A
C147       C2741   1.482   1_556  S
O148       Cr153   1.991       .  S
O149       Cr153   2.022       .  S
O149        C150   1.268       .  A
C150       C2587   1.473       .  S
Cr151       O154   1.756       .  S
Cr152       O154   1.770       .  S
Cr153       O154   1.774       .  S
O155       Cr173   2.002       .  S
O155        C163   1.266       .  A
O156       Cr173   2.005       .  S
O156        C157   1.267       .  A
C157        O158   1.265       .  A
C157       C2521   1.486       .  S
O158       Cr174   1.997       .  S
O159       Cr174   2.018       .  S
O159        C160   1.267       .  A
C160        O161   1.260       .  A
C160       C2465   1.482       .  S
O161       Cr175   1.974       .  S
O162       Cr175   1.993       .  S
O162        C163   1.264       .  A
C163       C2553   1.471       .  S
O164       Cr173   2.001       .  S
O164        C172   1.263       .  A
O165       Cr173   1.996       .  S
O165        C166   1.264       .  A
C166        O167   1.266       .  A
C166       C2851   1.485       .  S
O167       Cr174   2.011       .  S
O168       Cr174   1.993       .  S
O168        C169   1.261       .  A
C169        O170   1.263       .  A
C169       C2499   1.468       .  S
O170       Cr175   1.992       .  S
O171       Cr175   1.985       .  S
O171        C172   1.260       .  A
C172       C2443   1.479       .  S
Cr173       O176   1.769       .  S
Cr174       O176   1.780       .  S
Cr175       O176   1.763       .  S
O177       Cr195   1.997       .  S
O177        C185   1.263       .  A
O178       Cr195   2.006       .  S
O178        C179   1.269       .  A
C179        O180   1.265       .  A
C179       C2433   1.480       .  S
O180       Cr196   1.990       .  S
O181       Cr196   2.015       .  S
O181        C182   1.266       .  A
C182        O183   1.261       .  A
C182       C2543   1.482       .  S
O183       Cr197   1.983       .  S
O184       Cr197   1.989       .  S
O184        C185   1.263       .  A
C185       C2399   1.470       .  S
O186       Cr195   2.007       .  S
O186        C194   1.265       .  A
O187       Cr195   1.997       .  S
O187        C188   1.262       .  A
C188        O189   1.263       .  A
C188       C2697   1.481       .  S
O189       Cr196   2.004       .  S
O190       Cr196   1.991       .  S
O190        C191   1.262       .  A
C191        O192   1.263       .  A
C191       C2455   1.464       .  S
O192       Cr197   1.994       .  S
O193       Cr197   1.987       .  S
O193        C194   1.262       .  A
C194       C2389   1.487       .  S
Cr195       O198   1.765       .  S
Cr196       O198   1.779       .  S
Cr197       O198   1.763       .  S
O199       Cr217   1.962       .  S
O199        C207   1.259       .  A
O200       Cr217   1.990       .  S
O200        C201   1.259       .  A
C201        O202   1.257       .  A
C201       C2411   1.468       .  S
O202       Cr218   1.989       .  S
O203       Cr218   2.030       .  S
O203        C204   1.270       .  A
C204        O205   1.257       .  A
C204       C2355   1.479       .  S
O205       Cr219   1.955       .  S
O206       Cr219   2.046       .  S
O206        C207   1.275       .  A
C207       C2345   1.475       .  S
O208       Cr217   1.999       .  S
O208        C216   1.261       .  A
O209       Cr217   1.953       .  S
O209        C210   1.261       .  A
C210        O211   1.274       .  A
C210       C2575   1.476       .  S
O211       Cr218   2.033       .  S
O212       Cr218   1.959       .  S
O212        C213   1.256       .  A
C213        O214   1.271       .  A
C213       C3037   1.490   1_556  S
O214       Cr219   2.031       .  S
O215       Cr219   1.994       .  S
O215        C216   1.258       .  A
C216       C2311   1.470       .  S
Cr217       O220   1.757       .  S
Cr218       O220   1.778       .  S
Cr219       O220   1.772       .  S
O221       Cr239   1.989       .  S
O221        C229   1.261       .  A
O222       Cr239   2.009       .  S
O222        C223   1.268       .  A
C223        O224   1.264       .  A
C223       C2289   1.483       .  S
O224       Cr240   1.986       .  S
O225       Cr240   2.004       .  S
O225        C226   1.265       .  A
C226        O227   1.263       .  A
C226       C2333   1.483       .  S
O227       Cr241   1.993       .  S
O228       Cr241   1.988       .  S
O228        C229   1.262       .  A
C229       C2267   1.462       .  S
O230       Cr239   2.015       .  S
O230        C238   1.266       .  A
O231       Cr239   1.987       .  S
O231        C232   1.261       .  A
C232        O233   1.264       .  A
C232       C2927   1.477       .  S
O233       Cr240   2.008       .  S
O234       Cr240   2.001       .  S
O234        C235   1.266       .  A
C235        O236   1.263       .  A
C235       C2377   1.472       .  S
O236       Cr241   1.990       .  S
O237       Cr241   1.977       .  S
O237        C238   1.261       .  A
C238       C2487   1.479       .  S
Cr239       O242   1.772       .  S
Cr240       O242   1.772       .  S
Cr241       O242   1.759       .  S
O243       Cr261   1.998       .  S
O243        C251   1.263       .  A
O244       Cr261   1.977       .  S
O244        C245   1.261       .  A
C245        O246   1.266       .  A
C245       C2279   1.474       .  S
O246       Cr262   2.009       .  S
O247       Cr262   1.986       .  S
O247        C248   1.264       .  A
C248        O249   1.270       .  A
C248       C2257   1.480       .  S
O249       Cr263   2.009       .  S
O250       Cr263   1.992       .  S
O250        C251   1.262       .  A
C251       C2477   1.468       .  S
O252       Cr261   1.972       .  S
O252        C260   1.260       .  A
O253       Cr261   2.000       .  S
O253        C254   1.264       .  A
C254        O255   1.263       .  A
C254       C2323   1.469       .  S
O255       Cr262   1.997       .  S
O256       Cr262   2.000       .  S
O256        C257   1.261       .  A
C257        O258   1.261       .  A
C257       C2641   1.469   1_556  S
O258       Cr263   1.989       .  S
O259       Cr263   2.014       .  S
O259        C260   1.267       .  A
C260       C2609   1.480       .  S
Cr261       O264   1.759       .  S
Cr262       O264   1.772       .  S
Cr263       O264   1.765       .  S
O265       Cr283   1.967       .  S
O265        C273   1.259       .  A
O266       Cr283   1.994       .  S
O266        C267   1.258       .  A
C267        O268   1.256       .  A
C267       C2157   1.468       .  S
O268       Cr284   1.987       .  S
O269       Cr284   2.028       .  S
O269        C270   1.270       .  A
C270        O271   1.258       .  A
C270       C2223   1.477       .  S
O271       Cr285   1.956       .  S
O272       Cr285   2.033       .  S
O272        C273   1.272       .  A
C273       C2191   1.471       .  S
O274       Cr283   1.997       .  S
O274        C282   1.263       .  A
O275       Cr283   1.957       .  S
O275        C276   1.261       .  A
C276        O277   1.274       .  A
C276       C2201   1.478       .  S
O277       Cr284   2.027       .  S
O278       Cr284   1.967       .  S
O278        C279   1.257       .  A
C279        O280   1.269       .  A
C279       C2113   1.491       .  S
O280       Cr285   2.029       .  S
O281       Cr285   1.999       .  S
O281        C282   1.262       .  A
C282       C2135   1.471       .  S
Cr283       O286   1.760       .  S
Cr284       O286   1.775       .  S
Cr285       O286   1.775       .  S
O287       Cr305   1.993       .  S
O287        C295   1.261       .  A
O288       Cr305   2.009       .  S
O288        C289   1.267       .  A
C289        O290   1.264       .  A
C289       C2301   1.465       .  S
O290       Cr306   1.984       .  S
O291       Cr306   2.004       .  S
O291        C292   1.264       .  A
C292        O293   1.260       .  A
C292       C2179   1.477       .  S
O293       Cr307   1.983       .  S
O294       Cr307   1.989       .  S
O294        C295   1.262       .  A
C295       C2047   1.466       .  S
O296       Cr305   2.011       .  S
O296        C304   1.265       .  A
O297       Cr305   1.990       .  S
O297        C298   1.261       .  A
C298        O299   1.262       .  A
C298       C2037   1.474       .  S
O299       Cr306   1.999       .  S
O300       Cr306   2.002       .  S
O300        C301   1.267       .  A
C301        O302   1.265       .  A
C301       C2091   1.476       .  S
O302       Cr307   1.993       .  S
O303       Cr307   1.969       .  S
O303        C304   1.258       .  A
C304       C2069   1.471       .  S
Cr305       O308   1.773       .  S
Cr306       O308   1.774       .  S
Cr307       O308   1.757       .  S
O309       Cr327   1.986       .  S
O309        C317   1.262       .  A
O310       Cr327   2.003       .  S
O310        C311   1.266       .  A
C311        O312   1.263       .  A
C311       C2421   1.479       .  S
O312       Cr328   1.989       .  S
O313       Cr328   2.011       .  S
O313        C314   1.267       .  A
C314        O315   1.262       .  A
C314       C2015   1.486       .  S
O315       Cr329   1.980       .  S
O316       Cr329   1.997       .  S
O316        C317   1.265       .  A
C317       C1971   1.462       .  S
O318       Cr327   2.017       .  S
O318        C326   1.265       .  A
O319       Cr327   1.979       .  S
O319        C320   1.263       .  A
C320        O321   1.266       .  A
C320       C1937   1.482       .  S
O321       Cr328   2.005       .  S
O322       Cr328   1.984       .  S
O322        C323   1.260       .  A
C323        O324   1.262       .  A
C323       C2081   1.462       .  S
O324       Cr329   1.990       .  S
O325       Cr329   1.983       .  S
O325        C326   1.259       .  A
C326       C1981   1.481       .  S
Cr327       O330   1.772       .  S
Cr328       O330   1.780       .  S
Cr329       O330   1.764       .  S
O331       Cr349   1.985       .  S
O331        C339   1.263       .  A
O332       Cr349   1.978       .  S
O332        C333   1.259       .  A
C333        O334   1.267       .  A
C333       C2059   1.480       .  S
O334       Cr350   2.021       .  S
O335       Cr350   1.995       .  S
O335        C336   1.267       .  A
C336        O337   1.268       .  A
C336       C1915   1.488       .  S
O337       Cr351   2.006       .  S
O338       Cr351   2.002       .  S
O338        C339   1.266       .  A
C339       C2003   1.470       .  S
O340       Cr349   1.986       .  S
O340        C348   1.263       .  A
O341       Cr349   2.001       .  S
O341        C342   1.264       .  A
C342        O343   1.261       .  A
C342       C2147   1.467       .  S
O343       Cr350   1.991       .  S
O344       Cr350   2.004       .  S
O344        C345   1.263       .  A
C345        O346   1.262       .  A
C345       C1871   1.480       .  S
O346       Cr351   1.995       .  S
O347       Cr351   2.001       .  S
O347        C348   1.264       .  A
C348       C1893   1.485       .  S
Cr349       O352   1.764       .  S
Cr350       O352   1.776       .  S
Cr351       O352   1.768       .  S
O353       Cr371   1.990       .  S
O353        C361   1.262       .  A
O354       Cr371   2.009       .  S
O354        C355   1.269       .  A
C355        O356   1.266       .  A
C355       C2509   1.487       .  S
O356       Cr372   1.994       .  S
O357       Cr372   2.020       .  S
O357        C358   1.267       .  A
C358        O359   1.259       .  A
C358       C1861   1.480       .  S
O359       Cr373   1.975       .  S
O360       Cr373   1.997       .  S
O360        C361   1.263       .  A
C361       C2169   1.466       .  S
O362       Cr371   2.009       .  S
O362        C370   1.266       .  A
O363       Cr371   1.989       .  S
O363        C364   1.262       .  A
C364        O365   1.265       .  A
C364       C1827   1.482       .  S
O365       Cr372   2.010       .  S
O366       Cr372   1.995       .  S
O366        C367   1.263       .  A
C367        O368   1.264       .  A
C367       C1993   1.469       .  S
O368       Cr373   2.002       .  S
O369       Cr373   1.983       .  S
O369        C370   1.262       .  A
C370       C2103   1.487       .  S
Cr371       O374   1.768       .  S
Cr372       O374   1.777       .  S
Cr373       O374   1.764       .  S
O375       Cr393   1.987       .  S
O375        C383   1.259       .  A
O376       Cr393   1.977       .  S
O376        C377   1.261       .  A
C377        O378   1.268       .  A
C377       C1959   1.477       .  S
O378       Cr394   2.011       .  S
O379       Cr394   1.989       .  S
O379        C380   1.263       .  A
C380        O381   1.267       .  A
C380       C1817   1.471       .  S
O381       Cr395   1.998       .  S
O382       Cr395   1.995       .  S
O382        C383   1.260       .  A
C383       C1849   1.466       .  S
O384       Cr393   1.965       .  S
O384        C392   1.259       .  A
O385       Cr393   1.984       .  S
O385        C386   1.260       .  A
C386        O387   1.264       .  A
C386       C1905   1.476       .  S
O387       Cr394   2.008       .  S
O388       Cr394   2.000       .  S
O388        C389   1.264       .  A
C389        O390   1.261       .  A
C389       C1783   1.477       .  S
O390       Cr395   1.983       .  S
O391       Cr395   2.016       .  S
O391        C392   1.268       .  A
C392       C2213   1.473       .  S
Cr393       O396   1.760       .  S
Cr394       O396   1.778       .  S
Cr395       O396   1.772       .  S
O397       Cr415   2.035       .  S
O397        C405   1.276       .  A
O398       Cr415   1.955       .  S
O398        C399   1.258       .  A
C399        O400   1.269       .  A
C399       C1685   1.476       .  S
O400       Cr416   2.025       .  S
O401       Cr416   1.999       .  S
O401        C402   1.256       .  A
C402        O403   1.254       .  A
C402       C1751   1.469       .  S
O403       Cr417   1.986       .  S
O404       Cr417   1.970       .  S
O404        C405   1.265       .  A
C405       C1729   1.471       .  S
O406       Cr415   2.001       .  S
O406        C414   1.258       .  A
O407       Cr415   2.019       .  S
O407        C408   1.266       .  A
C408        O409   1.256       .  A
C408       C1949   1.482   1_554  S
O409       Cr416   1.950       .  S
O410       Cr416   2.045       .  S
O410        C411   1.278       .  A
C411        O412   1.264       .  A
C411       C1761   1.481       .  S
O412       Cr417   1.955       .  S
O413       Cr417   1.984       .  S
O413        C414   1.257       .  A
C414       C1695   1.474       .  S
Cr415       O418   1.778       .  S
Cr416       O418   1.777       .  S
Cr417       O418   1.761       .  S
O419       Cr437   1.995       .  S
O419        C427   1.263       .  A
O420       Cr437   1.975       .  S
O420        C421   1.259       .  A
C421        O422   1.265       .  A
C421       C1641   1.476       .  S
O422       Cr438   2.015       .  S
O423       Cr438   1.987       .  S
O423        C424   1.262       .  A
C424        O425   1.266       .  A
C424       C3159   1.471       .  S
O425       Cr439   1.999       .  S
O426       Cr439   1.988       .  S
O426        C427   1.261       .  A
C427       C1739   1.466       .  S
O428       Cr437   1.981       .  S
O428        C436   1.260       .  A
O429       Cr437   1.997       .  S
O429        C430   1.263       .  A
C430        O431   1.260       .  A
C430       C1651   1.461       .  S
O431       Cr438   1.983       .  S
O432       Cr438   2.001       .  S
O432        C433   1.266       .  A
C433        O434   1.263       .  A
C433       C1795   1.477       .  S
O434       Cr439   1.986       .  S
O435       Cr439   2.012       .  S
O435        C436   1.266       .  A
C436       C1607   1.480       .  S
Cr437       O440   1.763       .  S
Cr438       O440   1.779       .  S
Cr439       O440   1.774       .  S
O441       Cr459   1.988       .  S
O441        C449   1.262       .  A
O442       Cr459   1.983       .  S
O442        C443   1.262       .  A
C443        O444   1.267       .  A
C443       C1717   1.478       .  S
O444       Cr460   2.009       .  S
O445       Cr460   1.984       .  S
O445        C446   1.264       .  A
C446        O447   1.270       .  A
C446       C2675   1.482       .  S
O447       Cr461   2.009       .  S
O448       Cr461   1.996       .  S
O448        C449   1.263       .  A
C449       C1597   1.469       .  S
O450       Cr459   1.980       .  S
O450        C458   1.262       .  A
O451       Cr459   1.993       .  S
O451        C452   1.261       .  A
C452        O453   1.264       .  A
C452       C1619   1.467       .  S
O453       Cr460   2.000       .  S
O454       Cr460   2.003       .  S
O454        C455   1.262       .  A
C455        O456   1.260       .  A
C455       C1883   1.474       .  S
O456       Cr461   1.991       .  S
O457       Cr461   2.009       .  S
O457        C458   1.266       .  A
C458       C1563   1.481       .  S
Cr459       O462   1.760       .  S
Cr460       O462   1.775       .  S
Cr461       O462   1.768       .  S
O463       Cr481   1.994       .  S
O463        C471   1.263       .  A
O464       Cr481   2.017       .  S
O464        C465   1.268       .  A
C465        O466   1.261       .  A
C465       C1541   1.474       .  S
O466       Cr482   1.976       .  S
O467       Cr482   2.012       .  S
O467        C468   1.267       .  A
C468        O469   1.261       .  A
C468       C1585   1.480       .  S
O469       Cr483   1.974       .  S
O470       Cr483   1.995       .  S
O470        C471   1.263       .  A
C471       C1509   1.466       .  S
O472       Cr481   2.010       .  S
O472        C480   1.266       .  A
O473       Cr481   1.981       .  S
O473        C474   1.260       .  A
C474        O475   1.264       .  A
C474       C2025   1.466   1_554  S
O475       Cr482   2.006       .  S
O476       Cr482   1.992       .  S
O476        C477   1.261       .  A
C477        O478   1.264       .  A
C477       C1707   1.467       .  S
O478       Cr483   1.996       .  S
O479       Cr483   1.975       .  S
O479        C480   1.260       .  A
C480       C1519   1.476       .  S
Cr481       O484   1.766       .  S
Cr482       O484   1.767       .  S
Cr483       O484   1.756       .  S
O485       Cr503   1.993       .  S
O485        C493   1.263       .  A
O486       Cr503   2.020       .  S
O486        C487   1.270       .  A
C487        O488   1.262       .  A
C487       C1475   1.479       .  S
O488       Cr504   1.973       .  S
O489       Cr504   2.021       .  S
O489        C490   1.268       .  A
C490        O491   1.260       .  A
C490       C1453   1.486       .  S
O491       Cr505   1.976       .  S
O492       Cr505   1.990       .  S
O492        C493   1.262       .  A
C493       C1629   1.463       .  S
O494       Cr503   2.023       .  S
O494        C502   1.267       .  A
O495       Cr503   1.991       .  S
O495        C496   1.262   1_554  A
C496        O497   1.265   1_556  A
C496       C1839   1.474       .  S
O497       Cr504   2.011       .  S
O498       Cr504   1.987       .  S
O498        C499   1.261       .  A
C499        O500   1.263       .  A
C499       C1531   1.463       .  S
O500       Cr505   1.991       .  S
O501       Cr505   1.975       .  S
O501        C502   1.259       .  A
C502       C1773   1.481       .  S
Cr503       O506   1.770       .  S
Cr504       O506   1.773       .  S
Cr505       O506   1.757       .  S
O507       Cr525   1.986       .  S
O507        C515   1.261       .  A
O508       Cr525   1.979       .  S
O508        C509   1.262       .  A
C509        O510   1.269       .  A
C509       C1497   1.483       .  S
O510       Cr526   2.013       .  S
O511       Cr526   2.006       .  S
O511        C512   1.267       .  A
C512        O513   1.267       .  A
C512       C2807   1.494       .  S
O513       Cr527   2.004       .  S
O514       Cr527   2.010       .  S
O514        C515   1.267       .  A
C515       C1465   1.474       .  S
O516       Cr525   1.978       .  S
O516        C524   1.260       .  A
O517       Cr525   1.986       .  S
O517        C518   1.259       .  A
C518        O519   1.263       .  A
C518       C1575   1.473       .  S
O519       Cr526   2.005       .  S
O520       Cr526   2.009       .  S
O520        C521   1.267       .  A
C521        O522   1.265       .  A
C521       C2125   1.493       .  S
O522       Cr527   1.993       .  S
O523       Cr527   2.008       .  S
O523        C524   1.265       .  A
C524       C1663   1.473       .  S
Cr525       O528   1.764       .  S
Cr526       O528   1.775       .  S
Cr527       O528   1.771       .  S
O529       Cr547   1.992       .  S
O529        C537   1.263       .  A
O530       Cr547   1.993       .  S
O530        C531   1.264       .  A
C531        O532   1.263       .  A
C531       C3027   1.474       .  S
O532       Cr548   1.991       .  S
O533       Cr548   2.023   1_455  S
O533        C534   1.269   1_455  A
C534        O535   1.260       .  A
C534       C1399   1.486   1_655  S
O535       Cr549   1.975       .  S
O536       Cr549   1.992       .  S
O536        C537   1.263       .  A
C537       C1377   1.462       .  S
O538       Cr547   2.002       .  S
O538        C546   1.262       .  A
O539       Cr547   1.986       .  S
O539        C540   1.263       .  A
C540        O541   1.268       .  A
C540       C1343   1.481       .  S
O541       Cr548   2.015       .  S
O542       Cr548   1.991   1_455  S
O542        C543   1.261       .  A
C543        O544   1.262   1_455  A
C543       C1431   1.466       .  S
O544       Cr549   1.989       .  S
O545       Cr549   1.982       .  S
O545        C546   1.260       .  A
C546       C1409   1.473       .  S
Cr547       O550   1.768       .  S
Cr548       O550   1.777       .  S
Cr549       O550   1.761       .  S
O551       Cr569   1.995       .  S
O551        C559   1.263       .  A
O552       Cr569   1.973       .  S
O552        C553   1.261       .  A
C553        O554   1.267       .  A
C553       C1289   1.479       .  S
O554       Cr570   2.011       .  S
O555       Cr570   1.993       .  S
O555        C556   1.264       .  A
C556        O557   1.267       .  A
C556       C2235   1.486       .  S
O557       Cr571   2.001       .  S
O558       Cr571   2.002       .  S
O558        C559   1.265       .  A
C559       C1387   1.474       .  S
O560       Cr569   1.972       .  S
O560        C568   1.259       .  A
O561       Cr569   1.992       .  S
O561        C562   1.261       .  A
C562        O563   1.260       .  A
C562       C1321   1.467       .  S
O563       Cr570   1.992       .  S
O564       Cr570   2.002       .  S
O564        C565   1.266       .  A
C565        O566   1.262       .  A
C565       C1267   1.480       .  S
O566       Cr571   1.980       .  S
O567       Cr571   2.014       .  S
O567        C568   1.266       .  A
C568       C1299   1.478       .  S
Cr569       O572   1.759       .  S
Cr570       O572   1.775       .  S
Cr571       O572   1.769       .  S
O573       Cr591   1.993       .  S
O573        C581   1.262       .  A
O574       Cr591   2.001       .  S
O574        C575   1.267       .  A
C575        O576   1.262       .  A
C575       C2707   1.479       .  S
O576       Cr592   1.984       .  S
O577       Cr592   2.018   1_565  S
O577        C578   1.268       .  A
C578        O579   1.260   1_565  A
C578       C1223   1.477       .  S
O579       Cr593   1.971       .  S
O580       Cr593   1.994       .  S
O580        C581   1.264       .  A
C581       C1277   1.468       .  S
O582       Cr591   2.010       .  S
O582        C590   1.266       .  A
O583       Cr591   1.977       .  S
O583        C584   1.260       .  A
C584        O585   1.265       .  A
C584       C1189   1.465       .  S
O585       Cr592   2.009       .  S
O586       Cr592   1.992   1_565  S
O586        C587   1.261       .  A
C587        O588   1.263       .  A
C587       C1233   1.468       .  S
O588       Cr593   1.998   1_565  S
O589       Cr593   1.976       .  S
O589        C590   1.261       .  A
C590       C1443   1.479       .  S
Cr591       O594   1.766       .  S
Cr592       O594   1.774       .  S
Cr593       O594   1.758       .  S
O595       Cr613   1.993       .  S
O595        C603   1.263       .  A
O596       Cr613   1.977       .  S
O596        C597   1.260   1_565  A
C597        O598   1.266       .  A
C597       C1365   1.477       .  S
O598       Cr614   2.009   1_545  S
O599       Cr614   1.979       .  S
O599        C600   1.263       .  A
C600        O601   1.270       .  A
C600       C1805   1.479       .  S
O601       Cr615   2.007       .  S
O602       Cr615   2.002       .  S
O602        C603   1.264       .  A
C603       C1145   1.474       .  S
O604       Cr613   1.974       .  S
O604        C612   1.259       .  A
O605       Cr613   1.993   1_545  S
O605        C606   1.263       .  A
C606        O607   1.261       .  A
C606       C1311   1.465       .  S
O607       Cr614   1.988   1_545  S
O608       Cr614   2.001       .  S
O608        C609   1.263       .  A
C609        O610   1.263       .  A
C609       C1123   1.473       .  S
O610       Cr615   1.993       .  S
O611       Cr615   2.022       .  S
O611        C612   1.268       .  A
C612       C1167   1.483       .  S
Cr613       O616   1.759       .  S
Cr614       O616   1.777       .  S
Cr615       O616   1.767       .  S
O617       Cr635   2.027       .  S
O617        C625   1.270       .  A
O618       Cr635   1.949       .  S
O618        C619   1.257       .  A
C619        O620   1.272       .  A
C619       C2817   1.476       .  S
O620       Cr636   2.031       .  S
O621       Cr636   1.989       .  S
O621        C622   1.258       .  A
C622        O623   1.262       .  A
C622       C1157   1.475       .  S
O623       Cr637   2.002       .  S
O624       Cr637   1.963       .  S
O624        C625   1.259       .  A
C625       C1113   1.461       .  S
O626       Cr635   1.987       .  S
O626        C634   1.259       .  A
O627       Cr635   2.023       .  S
O627        C628   1.267       .  A
C628        O629   1.256       .  A
C628       C1079   1.485       .  S
O629       Cr636   1.963       .  S
O630       Cr636   2.033       .  S
O630        C631   1.273       .  A
C631        O632   1.258       .  A
C631       C1421   1.471       .  S
O632       Cr637   1.946       .  S
O633       Cr637   2.006       .  S
O633        C634   1.263       .  A
C634       C1245   1.467       .  S
Cr635       O638   1.774       .  S
Cr636       O638   1.778       .  S
Cr637       O638   1.758       .  S
O639       Cr657   1.992       .  S
O639        C647   1.261       .  A
O640       Cr657   1.978       .  S
O640        C641   1.262   1_455  A
C641        O642   1.266       .  A
C641       C1101   1.477       .  S
O642       Cr658   2.002       .  S
O643       Cr658   1.989   1_455  S
O643        C644   1.263       .  A
C644        O645   1.268       .  A
C644       C1927   1.478       .  S
O645       Cr659   2.006       .  S
O646       Cr659   1.996       .  S
O646        C647   1.262       .  A
C647       C1211   1.466       .  S
O648       Cr657   1.972       .  S
O648        C656   1.259       .  A
O649       Cr657   1.988   1_655  S
O649        C650   1.261       .  A
C650        O651   1.263       .  A
C650       C1179   1.472       .  S
O651       Cr658   2.001       .  S
O652       Cr658   1.992   1_455  S
O652        C653   1.263       .  A
C653        O654   1.263       .  A
C653       C1057   1.478       .  S
O654       Cr659   1.993       .  S
O655       Cr659   2.020       .  S
O655        C656   1.268       .  A
C656       C1333   1.477       .  S
Cr657       O660   1.760       .  S
Cr658       O660   1.775   1_655  S
Cr659       O660   1.773       .  S
O661       Cr679   1.988       .  S
O661        C669   1.263       .  A
O662       Cr679   1.983       .  S
O662        C663   1.261       .  A
C663        O664   1.265       .  A
C663       C1025   1.485   1_655  S
O664       Cr680   2.012       .  S
O665       Cr680   1.992       .  S
O665        C666   1.264       .  A
C666        O667   1.267       .  A
C666       C2245   1.481       .  S
O667       Cr681   2.003       .  S
O668       Cr681   1.991       .  S
O668        C669   1.262       .  A
C669        C981   1.464       .  S
O670       Cr679   1.980       .  S
O670        C678   1.260       .  A
O671       Cr679   1.991       .  S
O671        C672   1.263   1_655  A
C672        O673   1.260       .  A
C672       C1035   1.463       .  S
O673       Cr680   1.984   1_455  S
O674       Cr680   1.998       .  S
O674        C675   1.265       .  A
C675        O676   1.263       .  A
C675       C1069   1.476       .  S
O676       Cr681   1.989       .  S
O677       Cr681   2.019       .  S
O677        C678   1.266       .  A
C678        C991   1.487       .  S
Cr679       O682   1.762       .  S
Cr680       O682   1.780       .  S
Cr681       O682   1.775       .  S
O683       Cr701   1.999       .  S
O683        C691   1.265       .  A
O684       Cr701   1.993       .  S
O684        C685   1.266       .  A
C685        O686   1.266       .  A
C685       C1673   1.486       .  S
O686       Cr702   2.006       .  S
O687       Cr702   2.008   1_545  S
O687        C688   1.266       .  A
C688        O689   1.260   1_545  A
C688        C937   1.474       .  S
O689       Cr703   1.975       .  S
O690       Cr703   1.995       .  S
O690        C691   1.264       .  A
C691       C1013   1.470       .  S
O692       Cr701   2.006       .  S
O692        C700   1.264       .  A
O693       Cr701   1.983       .  S
O693        C694   1.263       .  A
C694        O695   1.265       .  A
C694       C1201   1.472       .  S
O695       Cr702   2.007       .  S
O696       Cr702   2.001   1_545  S
O696        C697   1.263       .  A
C697        O698   1.262       .  A
C697        C947   1.471       .  S
O698       Cr703   1.994   1_545  S
O699       Cr703   1.975       .  S
O699        C700   1.259       .  A
C700        C903   1.478       .  S
Cr701       O704   1.764       .  S
Cr702       O704   1.773       .  S
Cr703       O704   1.757       .  S
O705       Cr723   1.985       .  S
O705        C713   1.260       .  A
O706       Cr723   1.983       .  S
O706        C707   1.263       .  A
C707        O708   1.268       .  A
C707        C871   1.484       .  S
O708       Cr724   2.015       .  S
O709       Cr724   1.985       .  S
O709        C710   1.263       .  A
C710        O711   1.265       .  A
C710       C2631   1.474       .  S
O711       Cr725   2.004       .  S
O712       Cr725   1.996       .  S
O712        C713   1.262       .  A
C713        C925   1.463       .  S
O714       Cr723   1.971       .  S
O714        C722   1.260       .  A
O715       Cr723   1.982       .  S
O715        C716   1.259       .  A
C716        O717   1.260       .  A
C716        C893   1.467       .  S
O717       Cr724   1.994       .  S
O718       Cr724   2.002       .  S
O718        C719   1.265       .  A
C719        O720   1.260       .  A
C719       C1255   1.467       .  S
O720       Cr725   1.974       .  S
O721       Cr725   2.014       .  S
O721        C722   1.267       .  A
C722       C1047   1.476       .  S
Cr723       O726   1.759       .  S
Cr724       O726   1.771       .  S
Cr725       O726   1.774       .  S
O727       Cr745   1.989       .  S
O727        C735   1.262       .  A
O728       Cr745   1.982       .  S
O728        C729   1.261   1_545  A
C729        O730   1.266       .  A
C729        C827   1.479       .  S
O730       Cr746   2.009   1_565  S
O731       Cr746   1.993       .  S
O731        C732   1.266       .  A
C732        O733   1.269       .  A
C732       C2367   1.488       .  S
O733       Cr747   2.008       .  S
O734       Cr747   1.991       .  S
O734        C735   1.262       .  A
C735        C849   1.463       .  S
O736       Cr745   1.973       .  S
O736        C744   1.260       .  A
O737       Cr745   1.994   1_565  S
O737        C738   1.263       .  A
C738        O739   1.265       .  A
C738       C1003   1.474       .  S
O739       Cr746   2.004   1_565  S
O740       Cr746   2.008       .  S
O740        C741   1.264       .  A
C741        O742   1.260       .  A
C741       C1135   1.473       .  S
O742       Cr747   1.982       .  S
O743       Cr747   2.008       .  S
O743        C744   1.265       .  A
C744        C881   1.480       .  S
Cr745       O748   1.760       .  S
Cr746       O748   1.774       .  S
Cr747       O748   1.769       .  S
O749       Cr767   2.001       .  S
O749        C757   1.265       .  A
O750       Cr767   2.018       .  S
O750        C751   1.268       .  A
C751        O752   1.262       .  A
C751       C1553   1.476       .  S
O752       Cr768   1.983   1_455  S
O753       Cr768   2.002       .  S
O753        C754   1.264       .  A
C754        O755   1.260   1_655  A
C754        C837   1.478       .  S
O755       Cr769   1.982       .  S
O756       Cr769   1.992       .  S
O756        C757   1.263       .  A
C757        C859   1.470       .  S
O758       Cr767   2.018       .  S
O758        C766   1.267       .  A
O759       Cr767   1.996       .  S
O759        C760   1.264       .  A
C760        O761   1.263       .  A
C760       C1355   1.474       .  S
O761       Cr768   2.007   1_455  S
O762       Cr768   1.992       .  S
O762        C763   1.263       .  A
C763        O764   1.264       .  A
C763        C805   1.467       .  S
O764       Cr769   1.997   1_655  S
O765       Cr769   1.982       .  S
O765        C766   1.261       .  A
C766        C959   1.481       .  S
Cr767       O770   1.770       .  S
Cr768       O770   1.773   1_655  S
Cr769       O770   1.759       .  S
O771       Cr789   1.996       .  S
O771        C779   1.262       .  A
O772       Cr789   2.010       .  S
O772        C773   1.266       .  A
C773        O774   1.260       .  A
C773       C1487   1.466       .  S
O774       Cr790   1.981       .  S
O775       Cr790   2.009       .  S
O775        C776   1.266       .  A
C776        O777   1.261       .  A
C776        C969   1.480       .  S
O777       Cr791   1.977       .  S
O778       Cr791   1.994       .  S
O778        C779   1.262       .  A
C779        C815   1.467       .  S
O780       Cr789   2.022       .  S
O780        C788   1.268       .  A
O781       Cr789   1.988       .  S
O781        C782   1.264       .  A
C782        O783   1.267       .  A
C782       C1091   1.488       .  S
O783       Cr790   2.009       .  S
O784       Cr790   1.989       .  S
O784        C785   1.261       .  A
C785        O786   1.263       .  A
C785        C915   1.467       .  S
O786       Cr791   1.990       .  S
O787       Cr791   1.974       .  S
O787        C788   1.260       .  A
C788        C793   1.478       .  S
Cr789       O792   1.769       .  S
Cr790       O792   1.774       .  S
Cr791       O792   1.758       .  S
C793        C794   1.399       .  A
C793        C798   1.403       .  A
C794        C795   1.396       .  A
C794        H807   1.084       .  S
C795        C796   1.416   1_565  A
C795        H808   1.077       .  S
C796        C802   1.430       .  A
C796        C797   1.422   1_545  A
C797        C799   1.401   1_565  A
C797        C798   1.407       .  A
C798        H809   1.085       .  S
C799        C800   1.393       .  A
C799        H810   1.084   1_545  S
C800        C801   1.400       .  A
C800        H811   1.084       .  S
C801        C802   1.424       .  A
C801        C806   1.409       .  A
C802        C803   1.414       .  A
C803        C804   1.394       .  A
C803        H812   1.077       .  S
C804        C805   1.396       .  A
C804        H813   1.084       .  S
C805        C806   1.400       .  A
C806        H814   1.085       .  S
C815        C816   1.397       .  A
C815        C820   1.398       .  A
C816        C817   1.400       .  A
C816        H829   1.084       .  S
C817        C818   1.419       .  A
C817        H830   1.077       .  S
C818        C824   1.431   1_554  A
C818        C819   1.422       .  A
C819        C821   1.399       .  A
C819        C820   1.402       .  A
C820        H831   1.085       .  S
C821        C822   1.389       .  A
C821        H832   1.084       .  S
C822        C823   1.399       .  A
C822        H833   1.084   1_565  S
C823        C824   1.424   1_554  A
C823        C828   1.406   1_554  A
C824        C825   1.413       .  A
C825        C826   1.396       .  A
C825        H834   1.077       .  S
C826        C827   1.402       .  A
C826        H835   1.083       .  S
C827        C828   1.400       .  A
C828        H836   1.085   1_565  S
C837        C838   1.399       .  A
C837        C842   1.403       .  A
C838        C839   1.396       .  A
C838        H851   1.083   1_655  S
C839        C840   1.416       .  A
C839        H852   1.077   1_554  S
C840        C846   1.428   1_554  A
C840        C841   1.421       .  A
C841        C843   1.400       .  A
C841        C842   1.403       .  A
C842        H853   1.085       .  S
C843        C844   1.390       .  A
C843        H854   1.084       .  S
C844        C845   1.399   1_554  A
C844        H855   1.084       .  S
C845        C846   1.424       .  A
C845        C850   1.406       .  A
C846        C847   1.413       .  A
C847        C848   1.393       .  A
C847        H856   1.078       .  S
C848        C849   1.398       .  A
C848        H857   1.084       .  S
C849        C850   1.397       .  A
C850        H858   1.085       .  S
C859        C860   1.399       .  A
C859        C864   1.400       .  A
C860        C861   1.394       .  A
C860        H873   1.084       .  S
C861        C862   1.413       .  A
C861        H874   1.077       .  S
C862        C868   1.431       .  A
C862        C863   1.424       .  A
C863        C865   1.400       .  A
C863        C864   1.410       .  A
C864        H875   1.085       .  S
C865        C866   1.392   1_554  A
C865        H876   1.084   1_554  S
C866        C867   1.401       .  A
C866        H877   1.084       .  S
C867        C868   1.421   1_556  A
C867        C872   1.407       .  A
C868        C869   1.416   1_554  A
C869        C870   1.398       .  A
C869        H878   1.077   1_556  S
C870        C871   1.400       .  A
C870        H879   1.083       .  S
C871        C872   1.405       .  A
C872        H880   1.084       .  S
C881        C882   1.402       .  A
C881        C886   1.400       .  A
C882        C883   1.398       .  A
C882        H895   1.083       .  S
C883        C884   1.414       .  A
C883        H896   1.077       .  S
C884        C890   1.429   1_655  A
C884        C885   1.423       .  A
C885        C887   1.398       .  A
C885        C886   1.401       .  A
C886        H897   1.083       .  S
C887        C888   1.385   1_655  A
C887        H898   1.083       .  S
C888        C889   1.398       .  A
C888        H899   1.084       .  S
C889        C890   1.421       .  A
C889        C894   1.396       .  A
C890        C891   1.420       .  A
C891        C892   1.402       .  A
C891        H900   1.077       .  S
C892        C893   1.396       .  A
C892        H901   1.083       .  S
C893        C894   1.398       .  A
C894        H902   1.085       .  S
C903        C904   1.403       .  A
C903        C908   1.398       .  A
C904        C905   1.398   1_455  A
C904        H917   1.083       .  S
C905        C906   1.414       .  A
C905        H918   1.078       .  S
C906        C912   1.430       .  A
C906        C907   1.424       .  A
C907        C909   1.397       .  A
C907        C908   1.399   1_655  A
C908        H919   1.085       .  S
C909        C910   1.385       .  A
C909        H920   1.084       .  S
C910        C911   1.398       .  A
C910        H921   1.084       .  S
C911        C912   1.421       .  A
C911        C916   1.396       .  A
C912        C913   1.420       .  A
C913        C914   1.403       .  A
C913        H922   1.078       .  S
C914        C915   1.397       .  A
C914        H923   1.083       .  S
C915        C916   1.396       .  A
C916        H924   1.085       .  S
C925        C926   1.399       .  A
C925        C930   1.396       .  A
C926        C927   1.393       .  A
C926        H939   1.084       .  S
C927        C928   1.413       .  A
C927        H940   1.078       .  S
C928        C934   1.428       .  A
C928        C929   1.424       .  A
C929        C931   1.398       .  A
C929        C930   1.406       .  A
C930        H941   1.085       .  S
C931        C932   1.390   1_556  A
C931        H942   1.084       .  S
C932        C933   1.400       .  A
C932        H943   1.084       .  S
C933        C934   1.422   1_554  A
C933        C938   1.403       .  A
C934        C935   1.416       .  A
C935        C936   1.396   1_556  A
C935        H944   1.077       .  S
C936        C937   1.399       .  A
C936        H945   1.084   1_545  S
C937        C938   1.401       .  A
C938        H946   1.085       .  S
C947        C948   1.398       .  A
C947        C952   1.399       .  A
C948        C949   1.396       .  A
C948        H961   1.084       .  S
C949        C950   1.414       .  A
C949        H962   1.077       .  S
C950        C956   1.433       .  A
C950        C951   1.425       .  A
C951        C953   1.400       .  A
C951        C952   1.410       .  A
C952        H963   1.084       .  S
C953        C954   1.392       .  A
C953        H964   1.084       .  S
C954        C955   1.401       .  A
C954        H965   1.084       .  S
C955        C956   1.422       .  A
C955        C960   1.407       .  A
C956        C957   1.417       .  A
C957        C958   1.399       .  A
C957        H966   1.077       .  S
C958        C959   1.399       .  A
C958        H967   1.084       .  S
C959        C960   1.404       .  A
C960        H968   1.084       .  S
C969        C970   1.402       .  A
C969        C974   1.400       .  A
C970        C971   1.398       .  A
C970        H983   1.083       .  S
C971        C972   1.414   1_554  A
C971        H984   1.078       .  S
C972        C978   1.430       .  A
C972        C973   1.424       .  A
C973        C975   1.398       .  A
C973        C974   1.402   1_556  A
C974        H985   1.085       .  S
C975        C976   1.386       .  A
C975        H986   1.084       .  S
C976        C977   1.398       .  A
C976        H987   1.084       .  S
C977        C978   1.421       .  A
C977        C982   1.397       .  A
C978        C979   1.419       .  A
C979        C980   1.401       .  A
C979        H988   1.077       .  S
C980        C981   1.396       .  A
C980        H989   1.083       .  S
C981        C982   1.398       .  A
C982        H990   1.086       .  S
C991        C992   1.404       .  A
C991        C996   1.401       .  A
C992        C993   1.402       .  A
C992       H1005   1.083       .  S
C993        C994   1.415       .  A
C993       H1006   1.078       .  S
C994       C1000   1.436       .  A
C994        C995   1.425       .  A
C995        C997   1.398       .  A
C995        C996   1.406       .  A
C996       H1007   1.085       .  S
C997        C998   1.387       .  A
C997       H1008   1.084       .  S
C998        C999   1.398       .  A
C998       H1009   1.083       .  S
C999       C1000   1.421       .  A
C999       C1004   1.401       .  A
C1000      C1001   1.421       .  A
C1001      C1002   1.406       .  A
C1001      H1010   1.078       .  S
C1002      C1003   1.398       .  A
C1002      H1011   1.083       .  S
C1003      C1004   1.397       .  A
C1004      H1012   1.083       .  S
C1013      C1014   1.398       .  A
C1013      C1018   1.399       .  A
C1014      C1015   1.403       .  A
C1014      H1027   1.084       .  S
C1015      C1016   1.419       .  A
C1015      H1028   1.077       .  S
C1016      C1022   1.433   1_554  A
C1016      C1017   1.422       .  A
C1017      C1019   1.399       .  A
C1017      C1018   1.402       .  A
C1018      H1029   1.085       .  S
C1019      C1020   1.388   1_455  A
C1019      H1030   1.084   1_455  S
C1020      C1021   1.398   1_654  A
C1020      H1031   1.084       .  S
C1021      C1022   1.424       .  A
C1021      C1026   1.405   1_455  A
C1022      C1023   1.415       .  A
C1023      C1024   1.400       .  A
C1023      H1032   1.077       .  S
C1024      C1025   1.403       .  A
C1024      H1033   1.083       .  S
C1025      C1026   1.401   1_455  A
C1026      H1034   1.085       .  S
C1035      C1036   1.396       .  A
C1035      C1040   1.396       .  A
C1036      C1037   1.400       .  A
C1036      H1049   1.083       .  S
C1037      C1038   1.419       .  A
C1037      H1050   1.077       .  S
C1038      C1044   1.429       .  A
C1038      C1039   1.422       .  A
C1039      C1041   1.398       .  A
C1039      C1040   1.398       .  A
C1040      H1051   1.085   1_455  S
C1041      C1042   1.386       .  A
C1041      H1052   1.084       .  S
C1042      C1043   1.398   1_565  A
C1042      H1053   1.084   1_565  S
C1043      C1044   1.423   1_545  A
C1043      C1048   1.400       .  A
C1044      C1045   1.415   1_565  A
C1045      C1046   1.397       .  A
C1045      H1054   1.077   1_545  S
C1046      C1047   1.401       .  A
C1046      H1055   1.083       .  S
C1047      C1048   1.399       .  A
C1048      H1056   1.084       .  S
C1057      C1058   1.401   1_455  A
C1057      C1062   1.401       .  A
C1058      C1059   1.393       .  A
C1058      H1071   1.084       .  S
C1059      C1060   1.412       .  A
C1059      H1072   1.077       .  S
C1060      C1066   1.430       .  A
C1060      C1061   1.425   1_655  A
C1061      C1063   1.400       .  A
C1061      C1062   1.410       .  A
C1062      H1073   1.084       .  S
C1063      C1064   1.392       .  A
C1063      H1074   1.084       .  S
C1064      C1065   1.401       .  A
C1064      H1075   1.084       .  S
C1065      C1066   1.420   1_455  A
C1065      C1070   1.405   1_455  A
C1066      C1067   1.418       .  A
C1067      C1068   1.399       .  A
C1067      H1076   1.077       .  S
C1068      C1069   1.397       .  A
C1068      H1077   1.083       .  S
C1069      C1070   1.403       .  A
C1070      H1078   1.085   1_655  S
C1079      C1080   1.401       .  A
C1079      C1084   1.403       .  A
C1080      C1081   1.404       .  A
C1080      H1093   1.083       .  S
C1081      C1082   1.419       .  A
C1081      H1094   1.077       .  S
C1082      C1088   1.435       .  A
C1082      C1083   1.421       .  A
C1083      C1085   1.399       .  A
C1083      C1084   1.402       .  A
C1084      H1095   1.085       .  S
C1085      C1086   1.388       .  A
C1085      H1096   1.084       .  S
C1086      C1087   1.398       .  A
C1086      H1097   1.084       .  S
C1087      C1088   1.424       .  A
C1087      C1092   1.407       .  A
C1088      C1089   1.414       .  A
C1089      C1090   1.400       .  A
C1089      H1098   1.077       .  S
C1090      C1091   1.404       .  A
C1090      H1099   1.083       .  S
C1091      C1092   1.402       .  A
C1092      H1100   1.084       .  S
C1101      C1102   1.401       .  A
C1101      C1106   1.401       .  A
C1102      C1103   1.393       .  A
C1102      H1115   1.083       .  S
C1103      C1104   1.412       .  A
C1103      H1116   1.077       .  S
C1104      C1110   1.426       .  A
C1104      C1105   1.423       .  A
C1105      C1107   1.399       .  A
C1105      C1106   1.404       .  A
C1106      H1117   1.085   1_655  S
C1107      C1108   1.390       .  A
C1107      H1118   1.084   1_655  S
C1108      C1109   1.400       .  A
C1108      H1119   1.084       .  S
C1109      C1110   1.422       .  A
C1109      C1114   1.402       .  A
C1110      C1111   1.417       .  A
C1111      C1112   1.395       .  A
C1111      H1120   1.077       .  S
C1112      C1113   1.395       .  A
C1112      H1121   1.084       .  S
C1113      C1114   1.398       .  A
C1114      H1122   1.085       .  S
C1123      C1124   1.400       .  A
C1123      C1128   1.398       .  A
C1124      C1125   1.397       .  A
C1124      H1137   1.084       .  S
C1125      C1126   1.414       .  A
C1125      H1138   1.078       .  S
C1126      C1132   1.429   1_565  A
C1126      C1127   1.423       .  A
C1127      C1129   1.399       .  A
C1127      C1128   1.405       .  A
C1128      H1139   1.085       .  S
C1129      C1130   1.390   1_565  A
C1129      H1140   1.084       .  S
C1130      C1131   1.399       .  A
C1130      H1141   1.084       .  S
C1131      C1132   1.422       .  A
C1131      C1136   1.404       .  A
C1132      C1133   1.416       .  A
C1133      C1134   1.398       .  A
C1133      H1142   1.078   1_545  S
C1134      C1135   1.399       .  A
C1134      H1143   1.084       .  S
C1135      C1136   1.399       .  A
C1136      H1144   1.085       .  S
C1145      C1146   1.399       .  A
C1145      C1150   1.398       .  A
C1146      C1147   1.406       .  A
C1146      H1159   1.083       .  S
C1147      C1148   1.420       .  A
C1147      H1160   1.078       .  S
C1148      C1154   1.435       .  A
C1148      C1149   1.422       .  A
C1149      C1151   1.398       .  A
C1149      C1150   1.401       .  A
C1150      H1161   1.086       .  S
C1151      C1152   1.387       .  A
C1151      H1162   1.084       .  S
C1152      C1153   1.398       .  A
C1152      H1163   1.084       .  S
C1153      C1154   1.424       .  A
C1153      C1158   1.404       .  A
C1154      C1155   1.417       .  A
C1155      C1156   1.404       .  A
C1155      H1164   1.078       .  S
C1156      C1157   1.400       .  A
C1156      H1165   1.083       .  S
C1157      C1158   1.397       .  A
C1158      H1166   1.085       .  S
C1167      C1168   1.403       .  A
C1167      C1172   1.401       .  A
C1168      C1169   1.402       .  A
C1168      H1181   1.083       .  S
C1169      C1170   1.416       .  A
C1169      H1182   1.078       .  S
C1170      C1176   1.434       .  A
C1170      C1171   1.424       .  A
C1171      C1173   1.398       .  A
C1171      C1172   1.403       .  A
C1172      H1183   1.084       .  S
C1173      C1174   1.387       .  A
C1173      H1184   1.083       .  S
C1174      C1175   1.398       .  A
C1174      H1185   1.084       .  S
C1175      C1176   1.422       .  A
C1175      C1180   1.400       .  A
C1176      C1177   1.420       .  A
C1177      C1178   1.404       .  A
C1177      H1186   1.078       .  S
C1178      C1179   1.398       .  A
C1178      H1187   1.083       .  S
C1179      C1180   1.398       .  A
C1180      H1188   1.085       .  S
C1189      C1190   1.397       .  A
C1189      C1194   1.396       .  A
C1190      C1191   1.398       .  A
C1190      H1203   1.084       .  S
C1191      C1192   1.416       .  A
C1191      H1204   1.078       .  S
C1192      C1198   1.429       .  A
C1192      C1193   1.423       .  A
C1193      C1195   1.398       .  A
C1193      C1194   1.402       .  A
C1194      H1205   1.085       .  S
C1195      C1196   1.388   1_545  A
C1195      H1206   1.084       .  S
C1196      C1197   1.399       .  A
C1196      H1207   1.084       .  S
C1197      C1198   1.423   1_565  A
C1197      C1202   1.402       .  A
C1198      C1199   1.416       .  A
C1199      C1200   1.398   1_545  A
C1199      H1208   1.078       .  S
C1200      C1201   1.400       .  A
C1200      H1209   1.083       .  S
C1201      C1202   1.398       .  A
C1202      H1210   1.085       .  S
C1211      C1212   1.397       .  A
C1211      C1216   1.399       .  A
C1212      C1213   1.393       .  A
C1212      H1225   1.084       .  S
C1213      C1214   1.414       .  A
C1213      H1226   1.077       .  S
C1214      C1220   1.429       .  A
C1214      C1215   1.424       .  A
C1215      C1217   1.400       .  A
C1215      C1216   1.408       .  A
C1216      H1227   1.085       .  S
C1217      C1218   1.392       .  A
C1217      H1228   1.084       .  S
C1218      C1219   1.400       .  A
C1218      H1229   1.084       .  S
C1219      C1220   1.423       .  A
C1219      C1224   1.407       .  A
C1220      C1221   1.415       .  A
C1221      C1222   1.394       .  A
C1221      H1230   1.077       .  S
C1222      C1223   1.399       .  A
C1222      H1231   1.084   1_565  S
C1223      C1224   1.402       .  A
C1224      H1232   1.084       .  S
C1233      C1234   1.398       .  A
C1233      C1238   1.397       .  A
C1234      C1235   1.399       .  A
C1234      H1247   1.084       .  S
C1235      C1236   1.416       .  A
C1235      H1248   1.077       .  S
C1236      C1242   1.432   1_455  A
C1236      C1237   1.425       .  A
C1237      C1239   1.399       .  A
C1237      C1238   1.406       .  A
C1238      H1249   1.085       .  S
C1239      C1240   1.388   1_455  A
C1239      H1250   1.084       .  S
C1240      C1241   1.399       .  A
C1240      H1251   1.084       .  S
C1241      C1242   1.423       .  A
C1241      C1246   1.402       .  A
C1242      C1243   1.419       .  A
C1243      C1244   1.401       .  A
C1243      H1252   1.077       .  S
C1244      C1245   1.396       .  A
C1244      H1253   1.084       .  S
C1245      C1246   1.397       .  A
C1246      H1254   1.085       .  S
C1255      C1256   1.397       .  A
C1255      C1260   1.398       .  A
C1256      C1257   1.397       .  A
C1256      H1269   1.083       .  S
C1257      C1258   1.417       .  A
C1257      H1270   1.078       .  S
C1258      C1264   1.428       .  A
C1258      C1259   1.422       .  A
C1259      C1261   1.399       .  A
C1259      C1260   1.403       .  A
C1260      H1271   1.085       .  S
C1261      C1262   1.389       .  A
C1261      H1272   1.084       .  S
C1262      C1263   1.399       .  A
C1262      H1273   1.084       .  S
C1263      C1264   1.423       .  A
C1263      C1268   1.405       .  A
C1264      C1265   1.413       .  A
C1265      C1266   1.396       .  A
C1265      H1274   1.078       .  S
C1266      C1267   1.402       .  A
C1266      H1275   1.083       .  S
C1267      C1268   1.401       .  A
C1268      H1276   1.084       .  S
C1277      C1278   1.397       .  A
C1277      C1282   1.398       .  A
C1278      C1279   1.402       .  A
C1278      H1291   1.083       .  S
C1279      C1280   1.419       .  A
C1279      H1292   1.077       .  S
C1280      C1286   1.430       .  A
C1280      C1281   1.422       .  A
C1281      C1283   1.398       .  A
C1281      C1282   1.398       .  A
C1282      H1293   1.086       .  S
C1283      C1284   1.386       .  A
C1283      H1294   1.084       .  S
C1284      C1285   1.398       .  A
C1284      H1295   1.084       .  S
C1285      C1286   1.424       .  A
C1285      C1290   1.401       .  A
C1286      C1287   1.414       .  A
C1287      C1288   1.398       .  A
C1287      H1296   1.077       .  S
C1288      C1289   1.402       .  A
C1288      H1297   1.083       .  S
C1289      C1290   1.400       .  A
C1290      H1298   1.085       .  S
C1299      C1300   1.402       .  A
C1299      C1304   1.400       .  A
C1300      C1301   1.398   1_455  A
C1300      H1313   1.083       .  S
C1301      C1302   1.415       .  A
C1301      H1314   1.078       .  S
C1302      C1308   1.430       .  A
C1302      C1303   1.423   1_655  A
C1303      C1305   1.398   1_455  A
C1303      C1304   1.401       .  A
C1304      H1315   1.084       .  S
C1305      C1306   1.386       .  A
C1305      H1316   1.084   1_655  S
C1306      C1307   1.398       .  A
C1306      H1317   1.083       .  S
C1307      C1308   1.422       .  A
C1307      C1312   1.398       .  A
C1308      C1309   1.419       .  A
C1309      C1310   1.401       .  A
C1309      H1318   1.078       .  S
C1310      C1311   1.396       .  A
C1310      H1319   1.083       .  S
C1311      C1312   1.396       .  A
C1312      H1320   1.084       .  S
C1321      C1322   1.397       .  A
C1321      C1326   1.397       .  A
C1322      C1323   1.394       .  A
C1322      H1335   1.083       .  S
C1323      C1324   1.414       .  A
C1323      H1336   1.077       .  S
C1324      C1330   1.430       .  A
C1324      C1325   1.425       .  A
C1325      C1327   1.399       .  A
C1325      C1326   1.408       .  A
C1326      H1337   1.084       .  S
C1327      C1328   1.391       .  A
C1327      H1338   1.084       .  S
C1328      C1329   1.400       .  A
C1328      H1339   1.084       .  S
C1329      C1330   1.422       .  A
C1329      C1334   1.406   1_545  A
C1330      C1331   1.415   1_545  A
C1331      C1332   1.395       .  A
C1331      H1340   1.077       .  S
C1332      C1333   1.400       .  A
C1332      H1341   1.083       .  S
C1333      C1334   1.402       .  A
C1334      H1342   1.085       .  S
C1343      C1344   1.400       .  A
C1343      C1348   1.402       .  A
C1344      C1345   1.399       .  A
C1344      H1357   1.083       .  S
C1345      C1346   1.415       .  A
C1345      H1358   1.077       .  S
C1346      C1352   1.433       .  A
C1346      C1347   1.423       .  A
C1347      C1349   1.400       .  A
C1347      C1348   1.408       .  A
C1348      H1359   1.085       .  S
C1349      C1350   1.391       .  A
C1349      H1360   1.084       .  S
C1350      C1351   1.400       .  A
C1350      H1361   1.084       .  S
C1351      C1352   1.423       .  A
C1351      C1356   1.407       .  A
C1352      C1353   1.417       .  A
C1353      C1354   1.400   1_655  A
C1353      H1362   1.077       .  S
C1354      C1355   1.398       .  A
C1354      H1363   1.084       .  S
C1355      C1356   1.399   1_455  A
C1356      H1364   1.085       .  S
C1365      C1366   1.399       .  A
C1365      C1370   1.402       .  A
C1366      C1367   1.395       .  A
C1366      H1379   1.084   1_545  S
C1367      C1368   1.416       .  A
C1367      H1380   1.077       .  S
C1368      C1374   1.428       .  A
C1368      C1369   1.422       .  A
C1369      C1371   1.400       .  A
C1369      C1370   1.404       .  A
C1370      H1381   1.085       .  S
C1371      C1372   1.391       .  A
C1371      H1382   1.084       .  S
C1372      C1373   1.399       .  A
C1372      H1383   1.084       .  S
C1373      C1374   1.424       .  A
C1373      C1378   1.407       .  A
C1374      C1375   1.413       .  A
C1375      C1376   1.393       .  A
C1375      H1384   1.077       .  S
C1376      C1377   1.397       .  A
C1376      H1385   1.084       .  S
C1377      C1378   1.397       .  A
C1378      H1386   1.085       .  S
C1387      C1388   1.398       .  A
C1387      C1392   1.400       .  A
C1388      C1389   1.404       .  A
C1388      H1401   1.083       .  S
C1389      C1390   1.419       .  A
C1389      H1402   1.078       .  S
C1390      C1396   1.434       .  A
C1390      C1391   1.422       .  A
C1391      C1393   1.399       .  A
C1391      C1392   1.401       .  A
C1392      H1403   1.086       .  S
C1393      C1394   1.388   1_455  A
C1393      H1404   1.084   1_455  S
C1394      C1395   1.399   1_655  A
C1394      H1405   1.084       .  S
C1395      C1396   1.423       .  A
C1395      C1400   1.404   1_455  A
C1396      C1397   1.416       .  A
C1397      C1398   1.402       .  A
C1397      H1406   1.078       .  S
C1398      C1399   1.403       .  A
C1398      H1407   1.083       .  S
C1399      C1400   1.402   1_455  A
C1400      H1408   1.085       .  S
C1409      C1410   1.396       .  A
C1409      C1414   1.403       .  A
C1410      C1411   1.395       .  A
C1410      H1423   1.083       .  S
C1411      C1412   1.417   1_545  A
C1411      H1424   1.077       .  S
C1412      C1418   1.425       .  A
C1412      C1413   1.420   1_565  A
C1413      C1415   1.402   1_545  A
C1413      C1414   1.403       .  A
C1414      H1425   1.084       .  S
C1415      C1416   1.392       .  A
C1415      H1426   1.084       .  S
C1416      C1417   1.399       .  A
C1416      H1427   1.084       .  S
C1417      C1418   1.424       .  A
C1417      C1422   1.409       .  A
C1418      C1419   1.409       .  A
C1419      C1420   1.388       .  A
C1419      H1428   1.078       .  S
C1420      C1421   1.401       .  A
C1420      H1429   1.084       .  S
C1421      C1422   1.400       .  A
C1422      H1430   1.084       .  S
C1431      C1432   1.396       .  A
C1431      C1436   1.397       .  A
C1432      C1433   1.402       .  A
C1432      H1445   1.083       .  S
C1433      C1434   1.420       .  A
C1433      H1446   1.077       .  S
C1434      C1440   1.430       .  A
C1434      C1435   1.422       .  A
C1435      C1437   1.399       .  A
C1435      C1436   1.399       .  A
C1436      H1447   1.085   1_455  S
C1437      C1438   1.387       .  A
C1437      H1448   1.084   1_455  S
C1438      C1439   1.398       .  A
C1438      H1449   1.084       .  S
C1439      C1440   1.424       .  A
C1439      C1444   1.403       .  A
C1440      C1441   1.414       .  A
C1441      C1442   1.397       .  A
C1441      H1450   1.078       .  S
C1442      C1443   1.403       .  A
C1442      H1451   1.083       .  S
C1443      C1444   1.400       .  A
C1444      H1452   1.085       .  S
C1453      C1454   1.403       .  A
C1453      C1458   1.402       .  A
C1454      C1455   1.401       .  A
C1454      H1467   1.083       .  S
C1455      C1456   1.415       .  A
C1455      H1468   1.078       .  S
C1456      C1462   1.434       .  A
C1456      C1457   1.424       .  A
C1457      C1459   1.399       .  A
C1457      C1458   1.405       .  A
C1458      H1469   1.085       .  S
C1459      C1460   1.388       .  A
C1459      H1470   1.084       .  S
C1460      C1461   1.399       .  A
C1460      H1471   1.084       .  S
C1461      C1462   1.422       .  A
C1461      C1466   1.402       .  A
C1462      C1463   1.420       .  A
C1463      C1464   1.405       .  A
C1463      H1472   1.078       .  S
C1464      C1465   1.398       .  A
C1464      H1473   1.083       .  S
C1465      C1466   1.401       .  A
C1466      H1474   1.086       .  S
C1475      C1476   1.401       .  A
C1475      C1480   1.402       .  A
C1476      C1477   1.395       .  A
C1476      H1489   1.083       .  S
C1477      C1478   1.413       .  A
C1477      H1490   1.077       .  S
C1478      C1484   1.429       .  A
C1478      C1479   1.423       .  A
C1479      C1481   1.400       .  A
C1479      C1480   1.407       .  A
C1480      H1491   1.084       .  S
C1481      C1482   1.391       .  A
C1481      H1492   1.084       .  S
C1482      C1483   1.400       .  A
C1482      H1493   1.084       .  S
C1483      C1484   1.423       .  A
C1483      C1488   1.405       .  A
C1484      C1485   1.417       .  A
C1485      C1486   1.397       .  A
C1485      H1494   1.077       .  S
C1486      C1487   1.395       .  A
C1486      H1495   1.084       .  S
C1487      C1488   1.399       .  A
C1488      H1496   1.085       .  S
C1497      C1498   1.402       .  A
C1497      C1502   1.402       .  A
C1498      C1499   1.397       .  A
C1498      H1511   1.083       .  S
C1499      C1500   1.413       .  A
C1499      H1512   1.077       .  S
C1500      C1506   1.431       .  A
C1500      C1501   1.424       .  A
C1501      C1503   1.399       .  A
C1501      C1502   1.406       .  A
C1502      H1513   1.085       .  S
C1503      C1504   1.389       .  A
C1503      H1514   1.084       .  S
C1504      C1505   1.399       .  A
C1504      H1515   1.084       .  S
C1505      C1506   1.422       .  A
C1505      C1510   1.402       .  A
C1506      C1507   1.419       .  A
C1507      C1508   1.400       .  A
C1507      H1516   1.077       .  S
C1508      C1509   1.396       .  A
C1508      H1517   1.084       .  S
C1509      C1510   1.399       .  A
C1510      H1518   1.086       .  S
C1519      C1520   1.399       .  A
C1519      C1524   1.403       .  A
C1520      C1521   1.395       .  A
C1520      H1533   1.084       .  S
C1521      C1522   1.416       .  A
C1521      H1534   1.077       .  S
C1522      C1528   1.427       .  A
C1522      C1523   1.421       .  A
C1523      C1525   1.400       .  A
C1523      C1524   1.403       .  A
C1524      H1535   1.085       .  S
C1525      C1526   1.390       .  A
C1525      H1536   1.084       .  S
C1526      C1527   1.399       .  A
C1526      H1537   1.084       .  S
C1527      C1528   1.426       .  A
C1527      C1532   1.407       .  A
C1528      C1529   1.412       .  A
C1529      C1530   1.390       .  A
C1529      H1538   1.077       .  S
C1530      C1531   1.395       .  A
C1530      H1539   1.081       .  S
C1531      C1532   1.396       .  A
C1532      H1540   1.085       .  S
C1541      C1542   1.399       .  A
C1541      C1546   1.399       .  A
C1542      C1543   1.399       .  A
C1542      H1555   1.083       .  S
C1543      C1544   1.417       .  A
C1543      H1556   1.078       .  S
C1544      C1550   1.431       .  A
C1544      C1545   1.422       .  A
C1545      C1547   1.399       .  A
C1545      C1546   1.404       .  A
C1546      H1557   1.085       .  S
C1547      C1548   1.390       .  A
C1547      H1558   1.084       .  S
C1548      C1549   1.399       .  A
C1548      H1559   1.084       .  S
C1549      C1550   1.423       .  A
C1549      C1554   1.406       .  A
C1550      C1551   1.415       .  A
C1551      C1552   1.399       .  A
C1551      H1560   1.078       .  S
C1552      C1553   1.400       .  A
C1552      H1561   1.084       .  S
C1553      C1554   1.400       .  A
C1554      H1562   1.085       .  S
C1563      C1564   1.399       .  A
C1563      C1568   1.405       .  A
C1564      C1565   1.395       .  A
C1564      H1577   1.083       .  S
C1565      C1566   1.416       .  A
C1565      H1578   1.077       .  S
C1566      C1572   1.429       .  A
C1566      C1567   1.420       .  A
C1567      C1569   1.401       .  A
C1567      C1568   1.407       .  A
C1568      H1579   1.084       .  S
C1569      C1570   1.393       .  A
C1569      H1580   1.084       .  S
C1570      C1571   1.400       .  A
C1570      H1581   1.084       .  S
C1571      C1572   1.426       .  A
C1571      C1576   1.412       .  A
C1572      C1573   1.411       .  A
C1573      C1574   1.391       .  A
C1573      H1582   1.077       .  S
C1574      C1575   1.398       .  A
C1574      H1583   1.082       .  S
C1575      C1576   1.399       .  A
C1576      H1584   1.084       .  S
C1585      C1586   1.402       .  A
C1585      C1590   1.400       .  A
C1586      C1587   1.398       .  A
C1586      H1599   1.083       .  S
C1587      C1588   1.414       .  A
C1587      H1600   1.077       .  S
C1588      C1594   1.430       .  A
C1588      C1589   1.424       .  A
C1589      C1591   1.398       .  A
C1589      C1590   1.402       .  A
C1590      H1601   1.085       .  S
C1591      C1592   1.386       .  A
C1591      H1602   1.084       .  S
C1592      C1593   1.399       .  A
C1592      H1603   1.084       .  S
C1593      C1594   1.421       .  A
C1593      C1598   1.398       .  A
C1594      C1595   1.420       .  A
C1595      C1596   1.402       .  A
C1595      H1604   1.077       .  S
C1596      C1597   1.397       .  A
C1596      H1605   1.083       .  S
C1597      C1598   1.399       .  A
C1598      H1606   1.086       .  S
C1607      C1608   1.400       .  A
C1607      C1612   1.403       .  A
C1608      C1609   1.398       .  A
C1608      H1621   1.083       .  S
C1609      C1610   1.416       .  A
C1609      H1622   1.078       .  S
C1610      C1616   1.431       .  A
C1610      C1611   1.422       .  A
C1611      C1613   1.401       .  A
C1611      C1612   1.406       .  A
C1612      H1623   1.085       .  S
C1613      C1614   1.391       .  A
C1613      H1624   1.084       .  S
C1614      C1615   1.399       .  A
C1614      H1625   1.084       .  S
C1615      C1616   1.424       .  A
C1615      C1620   1.408       .  A
C1616      C1617   1.414       .  A
C1617      C1618   1.395       .  A
C1617      H1626   1.078       .  S
C1618      C1619   1.398       .  A
C1618      H1627   1.084       .  S
C1619      C1620   1.399       .  A
C1620      H1628   1.085       .  S
C1629      C1630   1.396       .  A
C1629      C1634   1.399       .  A
C1630      C1631   1.394       .  A
C1630      H1643   1.084       .  S
C1631      C1632   1.414       .  A
C1631      H1644   1.077       .  S
C1632      C1638   1.428       .  A
C1632      C1633   1.423       .  A
C1633      C1635   1.400       .  A
C1633      C1634   1.407       .  A
C1634      H1645   1.085       .  S
C1635      C1636   1.392       .  A
C1635      H1646   1.084       .  S
C1636      C1637   1.401       .  A
C1636      H1647   1.084       .  S
C1637      C1638   1.423       .  A
C1637      C1642   1.406       .  A
C1638      C1639   1.415       .  A
C1639      C1640   1.395       .  A
C1639      H1648   1.077       .  S
C1640      C1641   1.399       .  A
C1640      H1649   1.084       .  S
C1641      C1642   1.402       .  A
C1642      H1650   1.085       .  S
C1651      C1652   1.395       .  A
C1651      C1656   1.397       .  A
C1652      C1653   1.393       .  A
C1652      H1665   1.084       .  S
C1653      C1654   1.414       .  A
C1653      H1666   1.077       .  S
C1654      C1660   1.427       .  A
C1654      C1655   1.424       .  A
C1655      C1657   1.399       .  A
C1655      C1656   1.406       .  A
C1656      H1667   1.085       .  S
C1657      C1658   1.390       .  A
C1657      H1668   1.084       .  S
C1658      C1659   1.400       .  A
C1658      H1669   1.084       .  S
C1659      C1660   1.421       .  A
C1659      C1664   1.403       .  A
C1660      C1661   1.416       .  A
C1661      C1662   1.395       .  A
C1661      H1670   1.077       .  S
C1662      C1663   1.398       .  A
C1662      H1671   1.083       .  S
C1663      C1664   1.401       .  A
C1664      H1672   1.085       .  S
C1673      C1674   1.401       .  A
C1673      C1678   1.407       .  A
C1674      C1675   1.386       .  A
C1674      H1687   1.084       .  S
C1675      C1676   1.410       .  A
C1675      H1688   1.076       .  S
C1676      C1682   1.427       .  A
C1676      C1677   1.422       .  A
C1677      C1679   1.403       .  A
C1677      C1678   1.417       .  A
C1678      H1689   1.084       .  S
C1679      C1680   1.399       .  A
C1679      H1690   1.084       .  S
C1680      C1681   1.403       .  A
C1680      H1691   1.084       .  S
C1681      C1682   1.423       .  A
C1681      C1686   1.417       .  A
C1682      C1683   1.412       .  A
C1683      C1684   1.387       .  A
C1683      H1692   1.076       .  S
C1684      C1685   1.397       .  A
C1684      H1693   1.085       .  S
C1685      C1686   1.405       .  A
C1686      H1694   1.084       .  S
C1695      C1696   1.399       .  A
C1695      C1700   1.397       .  A
C1696      C1697   1.407       .  A
C1696      H1709   1.083       .  S
C1697      C1698   1.421       .  A
C1697      H1710   1.078       .  S
C1698      C1704   1.432       .  A
C1698      C1699   1.421       .  A
C1699      C1701   1.397       .  A
C1699      C1700   1.393       .  A
C1700      H1711   1.084       .  S
C1701      C1702   1.382       .  A
C1701      H1712   1.083       .  S
C1702      C1703   1.396       .  A
C1702      H1713   1.084       .  S
C1703      C1704   1.424       .  A
C1703      C1708   1.397       .  A
C1704      C1705   1.418       .  A
C1705      C1706   1.403       .  A
C1705      H1714   1.078       .  S
C1706      C1707   1.399       .  A
C1706      H1715   1.083       .  S
C1707      C1708   1.394       .  A
C1708      H1716   1.086       .  S
C1717      C1718   1.401       .  A
C1717      C1722   1.402       .  A
C1718      C1719   1.395       .  A
C1718      H1731   1.083       .  S
C1719      C1720   1.412       .  A
C1719      H1732   1.078       .  S
C1720      C1726   1.427       .  A
C1720      C1721   1.422       .  A
C1721      C1723   1.400       .  A
C1721      C1722   1.406       .  A
C1722      H1733   1.084       .  S
C1723      C1724   1.391       .  A
C1723      H1734   1.084       .  S
C1724      C1725   1.400       .  A
C1724      H1735   1.083       .  S
C1725      C1726   1.422       .  A
C1725      C1730   1.404       .  A
C1726      C1727   1.416       .  A
C1727      C1728   1.397       .  A
C1727      H1736   1.078       .  S
C1728      C1729   1.398       .  A
C1728      H1737   1.084       .  S
C1729      C1730   1.400       .  A
C1730      H1738   1.083       .  S
C1739      C1740   1.398       .  A
C1739      C1744   1.396       .  A
C1740      C1741   1.402       .  A
C1740      H1753   1.083       .  S
C1741      C1742   1.417       .  A
C1741      H1754   1.078       .  S
C1742      C1748   1.433       .  A
C1742      C1743   1.424       .  A
C1743      C1745   1.398       .  A
C1743      C1744   1.402       .  A
C1744      H1755   1.085       .  S
C1745      C1746   1.386       .  A
C1745      H1756   1.084       .  S
C1746      C1747   1.399       .  A
C1746      H1757   1.084       .  S
C1747      C1748   1.423       .  A
C1747      C1752   1.400       .  A
C1748      C1749   1.419       .  A
C1749      C1750   1.404       .  A
C1749      H1758   1.078       .  S
C1750      C1751   1.398       .  A
C1750      H1759   1.083       .  S
C1751      C1752   1.398       .  A
C1752      H1760   1.086       .  S
C1761      C1762   1.401       .  A
C1761      C1766   1.401       .  A
C1762      C1763   1.404       .  A
C1762      H1775   1.083       .  S
C1763      C1764   1.419       .  A
C1763      H1776   1.078       .  S
C1764      C1770   1.433       .  A
C1764      C1765   1.421       .  A
C1765      C1767   1.398       .  A
C1765      C1766   1.399       .  A
C1766      H1777   1.085       .  S
C1767      C1768   1.386       .  A
C1767      H1778   1.084       .  S
C1768      C1769   1.398       .  A
C1768      H1779   1.084       .  S
C1769      C1770   1.423       .  A
C1769      C1774   1.402       .  A
C1770      C1771   1.416       .  A
C1771      C1772   1.402       .  A
C1771      H1780   1.078       .  S
C1772      C1773   1.402       .  A
C1772      H1781   1.083       .  S
C1773      C1774   1.399       .  A
C1774      H1782   1.083       .  S
C1783      C1784   1.401       .  A
C1783      C1788   1.400       .  A
C1784      C1785   1.397       .  A
C1784      H1797   1.084       .  S
C1785      C1786   1.414       .  A
C1785      H1798   1.078       .  S
C1786      C1792   1.431       .  A
C1786      C1787   1.424       .  A
C1787      C1789   1.399       .  A
C1787      C1788   1.406       .  A
C1788      H1799   1.085       .  S
C1789      C1790   1.390       .  A
C1789      H1800   1.084       .  S
C1790      C1791   1.400       .  A
C1790      H1801   1.084       .  S
C1791      C1792   1.422       .  A
C1791      C1796   1.404       .  A
C1792      C1793   1.417       .  A
C1793      C1794   1.400       .  A
C1793      H1802   1.078       .  S
C1794      C1795   1.399       .  A
C1794      H1803   1.083       .  S
C1795      C1796   1.401       .  A
C1796      H1804   1.085       .  S
C1805      C1806   1.402       .  A
C1805      C1810   1.398       .  A
C1806      C1807   1.403       .  A
C1806      H1819   1.083       .  S
C1807      C1808   1.416       .  A
C1807      H1820   1.078       .  S
C1808      C1814   1.432       .  A
C1808      C1809   1.423       .  A
C1809      C1811   1.397       .  A
C1809      C1810   1.398       .  A
C1810      H1821   1.085       .  S
C1811      C1812   1.383       .  A
C1811      H1822   1.084       .  S
C1812      C1813   1.397       .  A
C1812      H1823   1.084       .  S
C1813      C1814   1.421       .  A
C1813      C1818   1.395       .  A
C1814      C1815   1.420       .  A
C1815      C1816   1.406       .  A
C1815      H1824   1.078       .  S
C1816      C1817   1.399       .  A
C1816      H1825   1.083       .  S
C1817      C1818   1.396       .  A
C1818      H1826   1.083       .  S
C1827      C1828   1.401       .  A
C1827      C1832   1.402       .  A
C1828      C1829   1.399       .  A
C1828      H1841   1.083       .  S
C1829      C1830   1.415       .  A
C1829      H1842   1.078       .  S
C1830      C1836   1.432       .  A
C1830      C1831   1.423       .  A
C1831      C1833   1.400       .  A
C1831      C1832   1.407       .  A
C1832      H1843   1.085       .  S
C1833      C1834   1.391       .  A
C1833      H1844   1.084       .  S
C1834      C1835   1.400       .  A
C1834      H1845   1.084       .  S
C1835      C1836   1.423       .  A
C1835      C1840   1.407       .  A
C1836      C1837   1.416       .  A
C1837      C1838   1.399       .  A
C1837      H1846   1.078       .  S
C1838      C1839   1.399       .  A
C1838      H1847   1.084       .  S
C1839      C1840   1.400       .  A
C1840      H1848   1.085       .  S
C1849      C1850   1.397       .  A
C1849      C1854   1.399       .  A
C1850      C1851   1.395       .  A
C1850      H1863   1.084       .  S
C1851      C1852   1.414       .  A
C1851      H1864   1.077       .  S
C1852      C1858   1.430       .  A
C1852      C1853   1.424       .  A
C1853      C1855   1.400       .  A
C1853      C1854   1.408       .  A
C1854      H1865   1.085       .  S
C1855      C1856   1.392       .  A
C1855      H1866   1.084       .  S
C1856      C1857   1.401       .  A
C1856      H1867   1.084       .  S
C1857      C1858   1.423       .  A
C1857      C1862   1.408       .  A
C1858      C1859   1.415       .  A
C1859      C1860   1.396       .  A
C1859      H1868   1.077       .  S
C1860      C1861   1.399       .  A
C1860      H1869   1.084       .  S
C1861      C1862   1.403       .  A
C1862      H1870   1.085       .  S
C1871      C1872   1.400       .  A
C1871      C1876   1.402       .  A
C1872      C1873   1.400       .  A
C1872      H1885   1.083       .  S
C1873      C1874   1.416       .  A
C1873      H1886   1.078       .  S
C1874      C1880   1.431       .  A
C1874      C1875   1.422       .  A
C1875      C1877   1.400       .  A
C1875      C1876   1.405       .  A
C1876      H1887   1.085       .  S
C1877      C1878   1.390       .  A
C1877      H1888   1.084       .  S
C1878      C1879   1.399       .  A
C1878      H1889   1.084       .  S
C1879      C1880   1.423       .  A
C1879      C1884   1.406       .  A
C1880      C1881   1.415       .  A
C1881      C1882   1.399       .  A
C1881      H1890   1.078       .  S
C1882      C1883   1.399       .  A
C1882      H1891   1.084       .  S
C1883      C1884   1.400       .  A
C1884      H1892   1.085       .  S
C1893      C1894   1.405       .  A
C1893      C1898   1.400       .  A
C1894      C1895   1.399       .  A
C1894      H1907   1.083       .  S
C1895      C1896   1.413       .  A
C1895      H1908   1.078       .  S
C1896      C1902   1.433       .  A
C1896      C1897   1.425       .  A
C1897      C1899   1.398       .  A
C1897      C1898   1.405       .  A
C1898      H1909   1.085       .  S
C1899      C1900   1.387       .  A
C1899      H1910   1.084       .  S
C1900      C1901   1.399       .  A
C1900      H1911   1.084       .  S
C1901      C1902   1.420       .  A
C1901      C1906   1.398       .  A
C1902      C1903   1.421       .  A
C1903      C1904   1.405       .  A
C1903      H1912   1.078       .  S
C1904      C1905   1.398       .  A
C1904      H1913   1.083       .  S
C1905      C1906   1.401       .  A
C1906      H1914   1.085       .  S
C1915      C1916   1.402       .  A
C1915      C1920   1.403       .  A
C1916      C1917   1.405       .  A
C1916      H1929   1.083       .  S
C1917      C1918   1.418       .  A
C1917      H1930   1.078       .  S
C1918      C1924   1.435       .  A
C1918      C1919   1.422       .  A
C1919      C1921   1.399       .  A
C1919      C1920   1.402       .  A
C1920      H1931   1.085       .  S
C1921      C1922   1.387       .  A
C1921      H1932   1.084       .  S
C1922      C1923   1.398       .  A
C1922      H1933   1.084       .  S
C1923      C1924   1.423       .  A
C1923      C1928   1.403       .  A
C1924      C1925   1.418       .  A
C1925      C1926   1.405       .  A
C1925      H1934   1.078       .  S
C1926      C1927   1.400       .  A
C1926      H1935   1.083       .  S
C1927      C1928   1.399       .  A
C1928      H1936   1.085       .  S
C1937      C1938   1.398       .  A
C1937      C1942   1.407       .  A
C1938      C1939   1.392       .  A
C1938      H1951   1.083       .  S
C1939      C1940   1.415       .  A
C1939      H1952   1.077       .  S
C1940      C1946   1.427       .  A
C1940      C1941   1.420       .  A
C1941      C1943   1.402       .  A
C1941      C1942   1.409       .  A
C1942      H1953   1.084       .  S
C1943      C1944   1.395       .  A
C1943      H1954   1.084       .  S
C1944      C1945   1.401       .  A
C1944      H1955   1.084       .  S
C1945      C1946   1.424       .  A
C1945      C1950   1.414       .  A
C1946      C1947   1.409       .  A
C1947      C1948   1.386       .  A
C1947      H1956   1.077       .  S
C1948      C1949   1.402       .  A
C1948      H1957   1.084       .  S
C1949      C1950   1.404       .  A
C1950      H1958   1.084       .  S
C1959      C1960   1.400       .  A
C1959      C1964   1.402       .  A
C1960      C1961   1.396       .  A
C1960      H1973   1.084       .  S
C1961      C1962   1.416       .  A
C1961      H1974   1.077       .  S
C1962      C1968   1.427       .  A
C1962      C1963   1.421       .  A
C1963      C1965   1.400       .  A
C1963      C1964   1.402       .  A
C1964      H1975   1.085       .  S
C1965      C1966   1.389       .  A
C1965      H1976   1.084       .  S
C1966      C1967   1.398       .  A
C1966      H1977   1.084       .  S
C1967      C1968   1.425       .  A
C1967      C1972   1.406       .  A
C1968      C1969   1.413       .  A
C1969      C1970   1.392       .  A
C1969      H1978   1.078       .  S
C1970      C1971   1.397       .  A
C1970      H1979   1.082       .  S
C1971      C1972   1.396       .  A
C1972      H1980   1.085       .  S
C1981      C1982   1.399       .  A
C1981      C1986   1.403       .  A
C1982      C1983   1.399       .  A
C1982      H1995   1.083       .  S
C1983      C1984   1.417       .  A
C1983      H1996   1.078       .  S
C1984      C1990   1.431       .  A
C1984      C1985   1.421       .  A
C1985      C1987   1.401       .  A
C1985      C1986   1.406       .  A
C1986      H1997   1.083       .  S
C1987      C1988   1.393       .  A
C1987      H1998   1.084       .  S
C1988      C1989   1.400       .  A
C1988      H1999   1.084       .  S
C1989      C1990   1.424       .  A
C1989      C1994   1.409       .  A
C1990      C1991   1.414       .  A
C1991      C1992   1.396       .  A
C1991      H2000   1.078       .  S
C1992      C1993   1.397       .  A
C1992      H2001   1.084       .  S
C1993      C1994   1.400       .  A
C1994      H2002   1.085       .  S
C2003      C2004   1.398       .  A
C2003      C2008   1.399       .  A
C2004      C2005   1.404       .  A
C2004      H2017   1.083       .  S
C2005      C2006   1.420       .  A
C2005      H2018   1.078       .  S
C2006      C2012   1.433       .  A
C2006      C2007   1.421       .  A
C2007      C2009   1.399       .  A
C2007      C2008   1.399       .  A
C2008      H2019   1.086       .  S
C2009      C2010   1.387       .  A
C2009      H2020   1.084       .  S
C2010      C2011   1.398       .  A
C2010      H2021   1.084       .  S
C2011      C2012   1.424       .  A
C2011      C2016   1.405       .  A
C2012      C2013   1.414       .  A
C2013      C2014   1.400       .  A
C2013      H2022   1.078       .  S
C2014      C2015   1.404       .  A
C2014      H2023   1.083       .  S
C2015      C2016   1.401       .  A
C2016      H2024   1.085       .  S
C2025      C2026   1.396       .  A
C2025      C2030   1.399       .  A
C2026      C2027   1.395       .  A
C2026      H2039   1.084       .  S
C2027      C2028   1.416       .  A
C2027      H2040   1.077       .  S
C2028      C2034   1.428       .  A
C2028      C2029   1.422       .  A
C2029      C2031   1.400       .  A
C2029      C2030   1.404       .  A
C2030      H2041   1.085       .  S
C2031      C2032   1.391       .  A
C2031      H2042   1.084       .  S
C2032      C2033   1.400       .  A
C2032      H2043   1.084       .  S
C2033      C2034   1.424       .  A
C2033      C2038   1.407       .  A
C2034      C2035   1.413       .  A
C2035      C2036   1.393       .  A
C2035      H2044   1.077       .  S
C2036      C2037   1.399       .  A
C2036      H2045   1.084       .  S
C2037      C2038   1.400       .  A
C2038      H2046   1.085       .  S
C2047      C2048   1.397       .  A
C2047      C2052   1.399       .  A
C2048      C2049   1.395       .  A
C2048      H2061   1.084       .  S
C2049      C2050   1.414       .  A
C2049      H2062   1.077       .  S
C2050      C2056   1.431       .  A
C2050      C2051   1.423       .  A
C2051      C2053   1.400       .  A
C2051      C2052   1.408       .  A
C2052      H2063   1.085       .  S
C2053      C2054   1.392       .  A
C2053      H2064   1.084       .  S
C2054      C2055   1.401       .  A
C2054      H2065   1.084       .  S
C2055      C2056   1.422       .  A
C2055      C2060   1.408       .  A
C2056      C2057   1.416       .  A
C2057      C2058   1.397       .  A
C2057      H2066   1.077       .  S
C2058      C2059   1.399       .  A
C2058      H2067   1.084       .  S
C2059      C2060   1.403       .  A
C2060      H2068   1.085       .  S
C2069      C2070   1.397       .  A
C2069      C2074   1.401       .  A
C2070      C2071   1.392       .  A
C2070      H2083   1.083       .  S
C2071      C2072   1.415       .  A
C2071      H2084   1.077       .  S
C2072      C2078   1.427       .  A
C2072      C2073   1.423       .  A
C2073      C2075   1.400       .  A
C2073      C2074   1.406       .  A
C2074      H2085   1.085       .  S
C2075      C2076   1.391       .  A
C2075      H2086   1.084       .  S
C2076      C2077   1.400       .  A
C2076      H2087   1.084       .  S
C2077      C2078   1.424       .  A
C2077      C2082   1.407       .  A
C2078      C2079   1.414       .  A
C2079      C2080   1.391       .  A
C2079      H2088   1.077       .  S
C2080      C2081   1.395       .  A
C2080      H2089   1.084       .  S
C2081      C2082   1.397       .  A
C2082      H2090   1.085       .  S
C2091      C2092   1.397       .  A
C2091      C2096   1.401       .  A
C2092      C2093   1.404       .  A
C2092      H2105   1.083       .  S
C2093      C2094   1.421       .  A
C2093      H2106   1.077       .  S
C2094      C2100   1.433       .  A
C2094      C2095   1.421       .  A
C2095      C2097   1.400       .  A
C2095      C2096   1.401       .  A
C2096      H2107   1.084       .  S
C2097      C2098   1.389       .  A
C2097      H2108   1.084       .  S
C2098      C2099   1.399       .  A
C2098      H2109   1.084       .  S
C2099      C2100   1.425       .  A
C2099      C2104   1.407       .  A
C2100      C2101   1.413       .  A
C2101      C2102   1.398       .  A
C2101      H2110   1.077       .  S
C2102      C2103   1.404       .  A
C2102      H2111   1.083       .  S
C2103      C2104   1.402       .  A
C2104      H2112   1.085       .  S
C2113      C2114   1.402       .  A
C2113      C2118   1.405       .  A
C2114      C2115   1.406       .  A
C2114      H2127   1.083       .  S
C2115      C2116   1.419       .  A
C2115      H2128   1.078       .  S
C2116      C2122   1.437       .  A
C2116      C2117   1.421       .  A
C2117      C2119   1.400       .  A
C2117      C2118   1.405       .  A
C2118      H2129   1.085       .  S
C2119      C2120   1.389       .  A
C2119      H2130   1.084       .  S
C2120      C2121   1.399       .  A
C2120      H2131   1.084       .  S
C2121      C2122   1.424       .  A
C2121      C2126   1.409       .  A
C2122      C2123   1.415       .  A
C2123      C2124   1.402       .  A
C2123      H2132   1.078       .  S
C2124      C2125   1.405       .  A
C2124      H2133   1.083       .  S
C2125      C2126   1.403       .  A
C2126      H2134   1.084       .  S
C2135      C2136   1.398       .  A
C2135      C2140   1.397       .  A
C2136      C2137   1.405       .  A
C2136      H2149   1.083       .  S
C2137      C2138   1.420       .  A
C2137      H2150   1.078       .  S
C2138      C2144   1.433       .  A
C2138      C2139   1.421       .  A
C2139      C2141   1.398       .  A
C2139      C2140   1.398       .  A
C2140      H2151   1.083       .  S
C2141      C2142   1.386       .  A
C2141      H2152   1.084       .  S
C2142      C2143   1.397       .  A
C2142      H2153   1.084       .  S
C2143      C2144   1.425       .  A
C2143      C2148   1.401       .  A
C2144      C2145   1.416       .  A
C2145      C2146   1.401       .  A
C2145      H2154   1.078       .  S
C2146      C2147   1.399       .  A
C2146      H2155   1.084       .  S
C2147      C2148   1.395       .  A
C2148      H2156   1.085       .  S
C2157      C2158   1.396       .  A
C2157      C2162   1.399       .  A
C2158      C2159   1.396       .  A
C2158      H2171   1.084       .  S
C2159      C2160   1.416       .  A
C2159      H2172   1.077       .  S
C2160      C2166   1.431       .  A
C2160      C2161   1.424       .  A
C2161      C2163   1.400       .  A
C2161      C2162   1.407       .  A
C2162      H2173   1.085       .  S
C2163      C2164   1.391       .  A
C2163      H2174   1.084       .  S
C2164      C2165   1.400       .  A
C2164      H2175   1.084       .  S
C2165      C2166   1.424       .  A
C2165      C2170   1.408       .  A
C2166      C2167   1.415       .  A
C2167      C2168   1.396       .  A
C2167      H2176   1.077       .  S
C2168      C2169   1.396       .  A
C2168      H2177   1.084       .  S
C2169      C2170   1.398       .  A
C2170      H2178   1.085       .  S
C2179      C2180   1.399       .  A
C2179      C2184   1.402       .  A
C2180      C2181   1.397       .  A
C2180      H2193   1.083       .  S
C2181      C2182   1.415       .  A
C2181      H2194   1.078       .  S
C2182      C2188   1.427       .  A
C2182      C2183   1.422       .  A
C2183      C2185   1.400       .  A
C2183      C2184   1.403       .  A
C2184      H2195   1.085       .  S
C2185      C2186   1.390       .  A
C2185      H2196   1.084       .  S
C2186      C2187   1.399       .  A
C2186      H2197   1.084       .  S
C2187      C2188   1.422       .  A
C2187      C2192   1.403       .  A
C2188      C2189   1.414       .  A
C2189      C2190   1.396       .  A
C2189      H2198   1.078       .  S
C2190      C2191   1.398       .  A
C2190      H2199   1.081       .  S
C2191      C2192   1.400       .  A
C2192      H2200   1.085       .  S
C2201      C2202   1.400       .  A
C2201      C2206   1.402       .  A
C2202      C2203   1.398       .  A
C2202      H2215   1.083       .  S
C2203      C2204   1.416       .  A
C2203      H2216   1.078       .  S
C2204      C2210   1.429       .  A
C2204      C2205   1.422       .  A
C2205      C2207   1.399       .  A
C2205      C2206   1.399       .  A
C2206      H2217   1.085       .  S
C2207      C2208   1.386       .  A
C2207      H2218   1.084       .  S
C2208      C2209   1.398       .  A
C2208      H2219   1.084       .  S
C2209      C2210   1.423       .  A
C2209      C2214   1.400       .  A
C2210      C2211   1.416       .  A
C2211      C2212   1.397       .  A
C2211      H2220   1.078       .  S
C2212      C2213   1.400       .  A
C2212      H2221   1.083       .  S
C2213      C2214   1.399       .  A
C2214      H2222   1.085       .  S
C2223      C2224   1.400       .  A
C2223      C2228   1.399       .  A
C2224      C2225   1.408       .  A
C2224      H2237   1.083       .  S
C2225      C2226   1.420       .  A
C2225      H2238   1.078       .  S
C2226      C2232   1.435       .  A
C2226      C2227   1.422       .  A
C2227      C2229   1.397       .  A
C2227      C2228   1.397       .  A
C2228      H2239   1.086       .  S
C2229      C2230   1.384       .  A
C2229      H2240   1.084       .  S
C2230      C2231   1.397       .  A
C2230      H2241   1.084       .  S
C2231      C2232   1.423       .  A
C2231      C2236   1.399       .  A
C2232      C2233   1.418       .  A
C2233      C2234   1.406       .  A
C2233      H2242   1.078       .  S
C2234      C2235   1.403       .  A
C2234      H2243   1.083       .  S
C2235      C2236   1.401       .  A
C2236      H2244   1.085       .  S
C2245      C2246   1.401       .  A
C2245      C2250   1.400       .  A
C2246      C2247   1.405       .  A
C2246      H2259   1.083       .  S
C2247      C2248   1.418       .  A
C2247      H2260   1.078       .  S
C2248      C2254   1.434       .  A
C2248      C2249   1.422       .  A
C2249      C2251   1.398       .  A
C2249      C2250   1.402       .  A
C2250      H2261   1.085       .  S
C2251      C2252   1.387       .  A
C2251      H2262   1.084       .  S
C2252      C2253   1.398       .  A
C2252      H2263   1.084       .  S
C2253      C2254   1.423       .  A
C2253      C2258   1.402       .  A
C2254      C2255   1.417       .  A
C2255      C2256   1.404       .  A
C2255      H2264   1.078       .  S
C2256      C2257   1.401       .  A
C2256      H2265   1.083       .  S
C2257      C2258   1.399       .  A
C2258      H2266   1.085       .  S
C2267      C2268   1.395       .  A
C2267      C2272   1.398       .  A
C2268      C2269   1.398       .  A
C2268      H2281   1.084       .  S
C2269      C2270   1.418       .  A
C2269      H2282   1.077       .  S
C2270      C2276   1.428       .  A
C2270      C2271   1.421       .  A
C2271      C2273   1.399       .  A
C2271      C2272   1.399       .  A
C2272      H2283   1.086       .  S
C2273      C2274   1.388       .  A
C2273      H2284   1.084       .  S
C2274      C2275   1.399       .  A
C2274      H2285   1.084       .  S
C2275      C2276   1.424       .  A
C2275      C2280   1.403       .  A
C2276      C2277   1.413       .  A
C2277      C2278   1.395       .  A
C2277      H2286   1.077       .  S
C2278      C2279   1.400       .  A
C2278      H2287   1.083       .  S
C2279      C2280   1.399       .  A
C2280      H2288   1.085       .  S
C2289      C2290   1.402       .  A
C2289      C2294   1.401       .  A
C2290      C2291   1.401       .  A
C2290      H2303   1.083       .  S
C2291      C2292   1.416       .  A
C2291      H2304   1.078       .  S
C2292      C2298   1.432       .  A
C2292      C2293   1.423       .  A
C2293      C2295   1.399       .  A
C2293      C2294   1.403       .  A
C2294      H2305   1.085       .  S
C2295      C2296   1.387   1_655  A
C2295      H2306   1.084       .  S
C2296      C2297   1.398       .  A
C2296      H2307   1.084       .  S
C2297      C2298   1.423   1_455  A
C2297      C2302   1.401       .  A
C2298      C2299   1.419   1_655  A
C2299      C2300   1.402       .  A
C2299      H2308   1.078   1_455  S
C2300      C2301   1.397       .  A
C2300      H2309   1.083       .  S
C2301      C2302   1.395       .  A
C2302      H2310   1.086       .  S
C2311      C2312   1.398       .  A
C2311      C2316   1.395       .  A
C2312      C2313   1.405       .  A
C2312      H2325   1.083       .  S
C2313      C2314   1.420       .  A
C2313      H2326   1.078       .  S
C2314      C2320   1.433       .  A
C2314      C2315   1.422       .  A
C2315      C2317   1.398       .  A
C2315      C2316   1.398       .  A
C2316      H2327   1.082       .  S
C2317      C2318   1.386       .  A
C2317      H2328   1.083       .  S
C2318      C2319   1.397       .  A
C2318      H2329   1.084       .  S
C2319      C2320   1.425       .  A
C2319      C2324   1.402       .  A
C2320      C2321   1.416       .  A
C2321      C2322   1.402       .  A
C2321      H2330   1.078       .  S
C2322      C2323   1.399       .  A
C2322      H2331   1.084       .  S
C2323      C2324   1.396       .  A
C2324      H2332   1.085       .  S
C2333      C2334   1.402       .  A
C2333      C2338   1.403       .  A
C2334      C2335   1.395       .  A
C2334      H2347   1.083       .  S
C2335      C2336   1.412       .  A
C2335      H2348   1.078       .  S
C2336      C2342   1.430       .  A
C2336      C2337   1.423       .  A
C2337      C2339   1.400       .  A
C2337      C2338   1.410       .  A
C2338      H2349   1.084       .  S
C2339      C2340   1.392       .  A
C2339      H2350   1.084       .  S
C2340      C2341   1.401       .  A
C2340      H2351   1.083       .  S
C2341      C2342   1.422       .  A
C2341      C2346   1.408       .  A
C2342      C2343   1.416       .  A
C2343      C2344   1.396       .  A
C2343      H2352   1.077       .  S
C2344      C2345   1.399       .  A
C2344      H2353   1.084       .  S
C2345      C2346   1.400       .  A
C2346      H2354   1.081       .  S
C2355      C2356   1.400       .  A
C2355      C2360   1.400       .  A
C2356      C2357   1.407       .  A
C2356      H2369   1.083       .  S
C2357      C2358   1.420       .  A
C2357      H2370   1.078       .  S
C2358      C2364   1.435       .  A
C2358      C2359   1.422       .  A
C2359      C2361   1.398       .  A
C2359      C2360   1.399       .  A
C2360      H2371   1.086       .  S
C2361      C2362   1.385       .  A
C2361      H2372   1.084       .  S
C2362      C2363   1.398       .  A
C2362      H2373   1.084       .  S
C2363      C2364   1.423       .  A
C2363      C2368   1.402       .  A
C2364      C2365   1.417       .  A
C2365      C2366   1.404       .  A
C2365      H2374   1.078       .  S
C2366      C2367   1.403       .  A
C2366      H2375   1.083       .  S
C2367      C2368   1.402       .  A
C2368      H2376   1.085       .  S
C2377      C2378   1.397       .  A
C2377      C2382   1.400       .  A
C2378      C2379   1.403       .  A
C2378      H2391   1.083       .  S
C2379      C2380   1.420       .  A
C2379      H2392   1.077       .  S
C2380      C2386   1.433       .  A
C2380      C2381   1.421       .  A
C2381      C2383   1.400       .  A
C2381      C2382   1.402       .  A
C2382      H2393   1.085       .  S
C2383      C2384   1.389       .  A
C2383      H2394   1.084       .  S
C2384      C2385   1.399       .  A
C2384      H2395   1.084       .  S
C2385      C2386   1.425       .  A
C2385      C2390   1.408       .  A
C2386      C2387   1.413       .  A
C2387      C2388   1.398       .  A
C2387      H2396   1.077       .  S
C2388      C2389   1.404       .  A
C2388      H2397   1.083       .  S
C2389      C2390   1.402       .  A
C2390      H2398   1.084       .  S
C2399      C2400   1.398       .  A
C2399      C2404   1.397       .  A
C2400      C2401   1.404       .  A
C2400      H2413   1.083       .  S
C2401      C2402   1.420       .  A
C2401      H2414   1.078       .  S
C2402      C2408   1.433       .  A
C2402      C2403   1.423       .  A
C2403      C2405   1.398       .  A
C2403      C2404   1.398       .  A
C2404      H2415   1.086       .  S
C2405      C2406   1.385       .  A
C2405      H2416   1.084       .  S
C2406      C2407   1.397       .  A
C2406      H2417   1.084       .  S
C2407      C2408   1.424       .  A
C2407      C2412   1.399       .  A
C2408      C2409   1.418       .  A
C2409      C2410   1.403       .  A
C2409      H2418   1.078       .  S
C2410      C2411   1.399       .  A
C2410      H2419   1.083       .  S
C2411      C2412   1.396       .  A
C2412      H2420   1.086       .  S
C2421      C2422   1.401       .  A
C2421      C2426   1.399       .  A
C2422      C2423   1.405       .  A
C2422      H2435   1.083       .  S
C2423      C2424   1.418       .  A
C2423      H2436   1.078       .  S
C2424      C2430   1.435   1_565  A
C2424      C2425   1.423       .  A
C2425      C2427   1.398       .  A
C2425      C2426   1.402       .  A
C2426      H2437   1.085       .  S
C2427      C2428   1.386   1_565  A
C2427      H2438   1.084       .  S
C2428      C2429   1.398       .  A
C2428      H2439   1.084       .  S
C2429      C2430   1.423       .  A
C2429      C2434   1.401       .  A
C2430      C2431   1.418       .  A
C2431      C2432   1.405       .  A
C2431      H2440   1.078       .  S
C2432      C2433   1.401       .  A
C2432      H2441   1.083       .  S
C2433      C2434   1.399       .  A
C2434      H2442   1.085       .  S
C2443      C2444   1.399       .  A
C2443      C2448   1.404       .  A
C2444      C2445   1.399       .  A
C2444      H2457   1.083       .  S
C2445      C2446   1.418       .  A
C2445      H2458   1.077       .  S
C2446      C2452   1.429       .  A
C2446      C2447   1.420       .  A
C2447      C2449   1.401       .  A
C2447      C2448   1.402       .  A
C2448      H2459   1.085       .  S
C2449      C2450   1.390       .  A
C2449      H2460   1.084       .  S
C2450      C2451   1.398       .  A
C2450      H2461   1.084       .  S
C2451      C2452   1.425       .  A
C2451      C2456   1.407       .  A
C2452      C2453   1.413       .  A
C2453      C2454   1.393       .  A
C2453      H2462   1.078       .  S
C2454      C2455   1.397       .  A
C2454      H2463   1.083       .  S
C2455      C2456   1.396       .  A
C2456      H2464   1.085       .  S
C2465      C2466   1.402       .  A
C2465      C2470   1.401       .  A
C2466      C2467   1.400       .  A
C2466      H2479   1.083       .  S
C2467      C2468   1.416       .  A
C2467      H2480   1.078       .  S
C2468      C2474   1.432       .  A
C2468      C2469   1.423       .  A
C2469      C2471   1.399       .  A
C2469      C2470   1.403       .  A
C2470      H2481   1.085       .  S
C2471      C2472   1.388       .  A
C2471      H2482   1.084       .  S
C2472      C2473   1.398       .  A
C2472      H2483   1.084       .  S
C2473      C2474   1.423       .  A
C2473      C2478   1.401       .  A
C2474      C2475   1.418       .  A
C2475      C2476   1.401       .  A
C2475      H2484   1.078       .  S
C2476      C2477   1.397       .  A
C2476      H2485   1.083       .  S
C2477      C2478   1.398       .  A
C2478      H2486   1.086       .  S
C2487      C2488   1.402       .  A
C2487      C2492   1.399       .  A
C2488      C2489   1.400       .  A
C2488      H2501   1.083       .  S
C2489      C2490   1.416       .  A
C2489      H2502   1.078       .  S
C2490      C2496   1.432       .  A
C2490      C2491   1.424       .  A
C2491      C2493   1.398       .  A
C2491      C2492   1.403       .  A
C2492      H2503   1.085       .  S
C2493      C2494   1.387       .  A
C2493      H2504   1.084       .  S
C2494      C2495   1.398       .  A
C2494      H2505   1.084       .  S
C2495      C2496   1.423       .  A
C2495      C2500   1.400       .  A
C2496      C2497   1.419       .  A
C2497      C2498   1.403       .  A
C2497      H2506   1.078       .  S
C2498      C2499   1.397       .  A
C2498      H2507   1.083       .  S
C2499      C2500   1.396       .  A
C2500      H2508   1.085       .  S
C2509      C2510   1.401       .  A
C2509      C2514   1.403       .  A
C2510      C2511   1.404       .  A
C2510      H2523   1.083       .  S
C2511      C2512   1.417       .  A
C2511      H2524   1.078       .  S
C2512      C2518   1.436       .  A
C2512      C2513   1.422       .  A
C2513      C2515   1.400       .  A
C2513      C2514   1.406       .  A
C2514      H2525   1.085       .  S
C2515      C2516   1.390       .  A
C2515      H2526   1.084       .  S
C2516      C2517   1.400       .  A
C2516      H2527   1.084       .  S
C2517      C2518   1.422       .  A
C2517      C2522   1.406       .  A
C2518      C2519   1.418       .  A
C2519      C2520   1.405       .  A
C2519      H2528   1.078       .  S
C2520      C2521   1.401       .  A
C2520      H2529   1.083       .  S
C2521      C2522   1.403       .  A
C2522      H2530   1.085       .  S
C2531      C2532   1.397       .  A
C2531      C2536   1.399       .  A
C2532      C2533   1.401       .  A
C2532      H2545   1.084       .  S
C2533      C2534   1.418       .  A
C2533      H2546   1.078       .  S
C2534      C2540   1.432       .  A
C2534      C2535   1.422       .  A
C2535      C2537   1.399       .  A
C2535      C2536   1.402       .  A
C2536      H2547   1.086       .  S
C2537      C2538   1.389       .  A
C2537      H2548   1.084       .  S
C2538      C2539   1.399       .  A
C2538      H2549   1.084       .  S
C2539      C2540   1.423       .  A
C2539      C2544   1.405       .  A
C2540      C2541   1.415       .  A
C2541      C2542   1.399       .  A
C2541      H2550   1.078       .  S
C2542      C2543   1.402       .  A
C2542      H2551   1.083       .  S
C2543      C2544   1.401       .  A
C2544      H2552   1.085       .  S
C2553      C2554   1.397       .  A
C2553      C2558   1.399       .  A
C2554      C2555   1.403       .  A
C2554      H2567   1.083       .  S
C2555      C2556   1.420       .  A
C2555      H2568   1.078       .  S
C2556      C2562   1.432       .  A
C2556      C2557   1.421       .  A
C2557      C2559   1.399       .  A
C2557      C2558   1.400       .  A
C2558      H2569   1.086       .  S
C2559      C2560   1.387       .  A
C2559      H2570   1.084       .  S
C2560      C2561   1.398       .  A
C2560      H2571   1.084       .  S
C2561      C2562   1.424       .  A
C2561      C2566   1.404       .  A
C2562      C2563   1.414       .  A
C2563      C2564   1.398       .  A
C2563      H2572   1.078       .  S
C2564      C2565   1.403       .  A
C2564      H2573   1.083       .  S
C2565      C2566   1.400       .  A
C2566      H2574   1.085       .  S
C2575      C2576   1.399       .  A
C2575      C2580   1.400       .  A
C2576      C2577   1.401       .  A
C2576      H2589   1.083       .  S
C2577      C2578   1.418       .  A
C2577      H2590   1.078       .  S
C2578      C2584   1.429       .  A
C2578      C2579   1.421       .  A
C2579      C2581   1.398       .  A
C2579      C2580   1.397       .  A
C2580      H2591   1.085       .  S
C2581      C2582   1.386       .  A
C2581      H2592   1.084       .  S
C2582      C2583   1.398       .  A
C2582      H2593   1.084       .  S
C2583      C2584   1.423       .  A
C2583      C2588   1.399       .  A
C2584      C2585   1.416       .  A
C2585      C2586   1.399       .  A
C2585      H2594   1.078       .  S
C2586      C2587   1.400       .  A
C2586      H2595   1.083       .  S
C2587      C2588   1.398       .  A
C2588      H2596   1.085       .  S
C2597      C2598   1.398       .  A
C2597      C2602   1.399       .  A
C2598      C2599   1.389       .  A
C2598      H2611   1.083       .  S
C2599      C2600   1.412       .  A
C2599      H2612   1.077       .  S
C2600      C2606   1.427       .  A
C2600      C2601   1.425       .  A
C2601      C2603   1.400       .  A
C2601      C2602   1.411       .  A
C2602      H2613   1.084       .  S
C2603      C2604   1.393       .  A
C2603      H2614   1.084       .  S
C2604      C2605   1.401       .  A
C2604      H2615   1.084       .  S
C2605      C2606   1.420       .  A
C2605      C2610   1.407       .  A
C2606      C2607   1.414       .  A
C2607      C2608   1.393       .  A
C2607      H2616   1.077       .  S
C2608      C2609   1.400       .  A
C2608      H2617   1.084       .  S
C2609      C2610   1.405       .  A
C2610      H2618   1.084       .  S
C2619      C2620   1.397       .  A
C2619      C2624   1.400       .  A
C2620      C2621   1.397       .  A
C2620      H2633   1.083       .  S
C2621      C2622   1.415       .  A
C2621      H2634   1.078       .  S
C2622      C2628   1.427       .  A
C2622      C2623   1.422       .  A
C2623      C2625   1.400       .  A
C2623      C2624   1.405       .  A
C2624      H2635   1.085       .  S
C2625      C2626   1.391       .  A
C2625      H2636   1.084       .  S
C2626      C2627   1.400       .  A
C2626      H2637   1.084       .  S
C2627      C2628   1.421       .  A
C2627      C2632   1.405       .  A
C2628      C2629   1.414       .  A
C2629      C2630   1.397       .  A
C2629      H2638   1.078       .  S
C2630      C2631   1.399       .  A
C2630      H2639   1.084       .  S
C2631      C2632   1.402       .  A
C2632      H2640   1.085       .  S
C2641      C2642   1.398       .  A
C2641      C2646   1.399       .  A
C2642      C2643   1.396       .  A
C2642      H2655   1.084       .  S
C2643      C2644   1.415       .  A
C2643      H2656   1.078       .  S
C2644      C2650   1.429       .  A
C2644      C2645   1.423       .  A
C2645      C2647   1.399       .  A
C2645      C2646   1.405       .  A
C2646      H2657   1.085       .  S
C2647      C2648   1.390       .  A
C2647      H2658   1.084       .  S
C2648      C2649   1.400       .  A
C2648      H2659   1.084       .  S
C2649      C2650   1.422       .  A
C2649      C2654   1.405       .  A
C2650      C2651   1.415       .  A
C2651      C2652   1.396       .  A
C2651      H2660   1.078       .  S
C2652      C2653   1.399       .  A
C2652      H2661   1.083       .  S
C2653      C2654   1.401       .  A
C2654      H2662   1.085       .  S
C2663      C2664   1.400       .  A
C2663      C2668   1.399       .  A
C2664      C2665   1.403       .  A
C2664      H2677   1.083       .  S
C2665      C2666   1.418       .  A
C2665      H2678   1.078       .  S
C2666      C2672   1.433       .  A
C2666      C2667   1.422       .  A
C2667      C2669   1.398       .  A
C2667      C2668   1.401       .  A
C2668      H2679   1.085       .  S
C2669      C2670   1.387       .  A
C2669      H2680   1.084       .  S
C2670      C2671   1.398   1_655  A
C2670      H2681   1.084   1_655  S
C2671      C2672   1.423   1_455  A
C2671      C2676   1.403       .  A
C2672      C2673   1.416   1_655  A
C2673      C2674   1.402       .  A
C2673      H2682   1.078       .  S
C2674      C2675   1.401       .  A
C2674      H2683   1.083       .  S
C2675      C2676   1.401       .  A
C2676      H2684   1.085       .  S
C2685      C2686   1.399       .  A
C2685      C2690   1.401       .  A
C2686      C2687   1.398       .  A
C2686      H2699   1.084       .  S
C2687      C2688   1.416       .  A
C2687      H2700   1.077       .  S
C2688      C2694   1.432       .  A
C2688      C2689   1.423       .  A
C2689      C2691   1.400       .  A
C2689      C2690   1.408       .  A
C2690      H2701   1.085       .  S
C2691      C2692   1.392       .  A
C2691      H2702   1.084       .  S
C2692      C2693   1.400       .  A
C2692      H2703   1.084       .  S
C2693      C2694   1.423       .  A
C2693      C2698   1.409       .  A
C2694      C2695   1.415       .  A
C2695      C2696   1.398       .  A
C2695      H2704   1.078       .  S
C2696      C2697   1.400       .  A
C2696      H2705   1.083       .  S
C2697      C2698   1.402       .  A
C2698      H2706   1.085       .  S
C2707      C2708   1.402       .  A
C2707      C2712   1.399       .  A
C2708      C2709   1.403       .  A
C2708      H2721   1.083       .  S
C2709      C2710   1.417       .  A
C2709      H2722   1.078       .  S
C2710      C2716   1.432       .  A
C2710      C2711   1.423       .  A
C2711      C2713   1.397       .  A
C2711      C2712   1.398       .  A
C2712      H2723   1.085       .  S
C2713      C2714   1.384       .  A
C2713      H2724   1.084       .  S
C2714      C2715   1.397       .  A
C2714      H2725   1.084       .  S
C2715      C2716   1.422       .  A
C2715      C2720   1.396       .  A
C2716      C2717   1.419       .  A
C2717      C2718   1.404       .  A
C2717      H2726   1.078       .  S
C2718      C2719   1.399       .  A
C2718      H2727   1.083       .  S
C2719      C2720   1.396       .  A
C2720      H2728   1.085       .  S
C2729      C2730   1.400       .  A
C2729      C2734   1.406       .  A
C2730      C2731   1.401       .  A
C2730      H2743   1.083       .  S
C2731      C2732   1.418       .  A
C2731      H2744   1.077       .  S
C2732      C2738   1.432       .  A
C2732      C2733   1.420       .  A
C2733      C2735   1.400       .  A
C2733      C2734   1.403       .  A
C2734      H2745   1.085       .  S
C2735      C2736   1.390       .  A
C2735      H2746   1.084       .  S
C2736      C2737   1.399       .  A
C2736      H2747   1.084       .  S
C2737      C2738   1.425       .  A
C2737      C2742   1.409       .  A
C2738      C2739   1.413       .  A
C2739      C2740   1.396       .  A
C2739      H2748   1.077       .  S
C2740      C2741   1.402       .  A
C2740      H2749   1.083       .  S
C2741      C2742   1.401       .  A
C2742      H2750   1.085       .  S
C2751      C2752   1.397       .  A
C2751      C2756   1.399       .  A
C2752      C2753   1.402       .  A
C2752      H2765   1.083       .  S
C2753      C2754   1.419       .  A
C2753      H2766   1.077       .  S
C2754      C2760   1.433       .  A
C2754      C2755   1.422       .  A
C2755      C2757   1.400       .  A
C2755      C2756   1.404       .  A
C2756      H2767   1.084       .  S
C2757      C2758   1.390       .  A
C2757      H2768   1.084       .  S
C2758      C2759   1.399       .  A
C2758      H2769   1.084       .  S
C2759      C2760   1.425       .  A
C2759      C2764   1.407       .  A
C2760      C2761   1.415       .  A
C2761      C2762   1.398       .  A
C2761      H2770   1.077       .  S
C2762      C2763   1.398       .  A
C2762      H2771   1.084       .  S
C2763      C2764   1.397       .  A
C2764      H2772   1.085       .  S
C2773      C2774   1.398       .  A
C2773      C2778   1.399       .  A
C2774      C2775   1.394       .  A
C2774      H2787   1.084       .  S
C2775      C2776   1.413       .  A
C2775      H2788   1.077       .  S
C2776      C2782   1.430       .  A
C2776      C2777   1.424       .  A
C2777      C2779   1.400       .  A
C2777      C2778   1.409       .  A
C2778      H2789   1.085       .  S
C2779      C2780   1.392       .  A
C2779      H2790   1.084       .  S
C2780      C2781   1.401       .  A
C2780      H2791   1.084       .  S
C2781      C2782   1.423       .  A
C2781      C2786   1.407       .  A
C2782      C2783   1.417       .  A
C2783      C2784   1.397       .  A
C2783      H2792   1.077       .  S
C2784      C2785   1.396       .  A
C2784      H2793   1.084       .  S
C2785      C2786   1.399       .  A
C2786      H2794   1.085       .  S
C2795      C2796   1.401       .  A
C2795      C2800   1.401       .  A
C2796      C2797   1.409       .  A
C2796      H2809   1.083       .  S
C2797      C2798   1.420       .  A
C2797      H2810   1.078       .  S
C2798      C2804   1.440       .  A
C2798      C2799   1.423       .  A
C2799      C2801   1.398       .  A
C2799      C2800   1.405       .  A
C2800      H2811   1.085       .  S
C2801      C2802   1.387       .  A
C2801      H2812   1.084       .  S
C2802      C2803   1.399       .  A
C2802      H2813   1.084       .  S
C2803      C2804   1.422       .  A
C2803      C2808   1.404       .  A
C2804      C2805   1.419       .  A
C2805      C2806   1.409       .  A
C2805      H2814   1.078       .  S
C2806      C2807   1.404       .  A
C2806      H2815   1.083       .  S
C2807      C2808   1.404       .  A
C2808      H2816   1.085       .  S
C2817      C2818   1.398       .  A
C2817      C2822   1.401       .  A
C2818      C2819   1.404       .  A
C2818      H2831   1.083       .  S
C2819      C2820   1.420       .  A
C2819      H2832   1.078       .  S
C2820      C2826   1.432       .  A
C2820      C2821   1.421       .  A
C2821      C2823   1.398       .  A
C2821      C2822   1.398       .  A
C2822      H2833   1.086       .  S
C2823      C2824   1.385       .  A
C2823      H2834   1.084       .  S
C2824      C2825   1.398       .  A
C2824      H2835   1.084       .  S
C2825      C2826   1.423       .  A
C2825      C2830   1.400       .  A
C2826      C2827   1.415       .  A
C2827      C2828   1.400       .  A
C2827      H2836   1.078       .  S
C2828      C2829   1.402       .  A
C2828      H2837   1.083       .  S
C2829      C2830   1.400       .  A
C2830      H2838   1.085       .  S
C2839      C2840   1.399       .  A
C2839      C2844   1.402       .  A
C2840      C2841   1.399       .  A
C2840      H2853   1.084       .  S
C2841      C2842   1.415       .  A
C2841      H2854   1.078       .  S
C2842      C2848   1.435       .  A
C2842      C2843   1.424       .  A
C2843      C2845   1.401       .  A
C2843      C2844   1.411       .  A
C2844      H2855   1.085       .  S
C2845      C2846   1.393       .  A
C2845      H2856   1.084       .  S
C2846      C2847   1.401       .  A
C2846      H2857   1.084       .  S
C2847      C2848   1.422       .  A
C2847      C2852   1.410       .  A
C2848      C2849   1.416       .  A
C2849      C2850   1.401       .  A
C2849      H2858   1.078       .  S
C2850      C2851   1.401       .  A
C2850      H2859   1.083       .  S
C2851      C2852   1.404       .  A
C2852      H2860   1.085       .  S
C2861      C2862   1.398       .  A
C2861      C2866   1.399       .  A
C2862      C2863   1.403       .  A
C2862      H2875   1.084       .  S
C2863      C2864   1.419       .  A
C2863      H2876   1.078       .  S
C2864      C2870   1.434       .  A
C2864      C2865   1.422       .  A
C2865      C2867   1.399       .  A
C2865      C2866   1.402       .  A
C2866      H2877   1.086       .  S
C2867      C2868   1.388       .  A
C2867      H2878   1.084       .  S
C2868      C2869   1.398       .  A
C2868      H2879   1.084       .  S
C2869      C2870   1.424       .  A
C2869      C2874   1.405       .  A
C2870      C2871   1.415       .  A
C2871      C2872   1.400       .  A
C2871      H2880   1.078       .  S
C2872      C2873   1.402       .  A
C2872      H2881   1.083       .  S
C2873      C2874   1.400       .  A
C2874      H2882   1.085       .  S
C2883      C2884   1.401       .  A
C2883      C2888   1.401       .  A
C2884      C2885   1.397       .  A
C2884      H2897   1.083       .  S
C2885      C2886   1.415       .  A
C2885      H2898   1.078       .  S
C2886      C2892   1.427       .  A
C2886      C2887   1.422       .  A
C2887      C2889   1.399       .  A
C2887      C2888   1.402       .  A
C2888      H2899   1.084       .  S
C2889      C2890   1.388       .  A
C2889      H2900   1.084       .  S
C2890      C2891   1.398       .  A
C2890      H2901   1.084       .  S
C2891      C2892   1.423       .  A
C2891      C2896   1.402       .  A
C2892      C2893   1.414       .  A
C2893      C2894   1.396       .  A
C2893      H2902   1.078       .  S
C2894      C2895   1.398       .  A
C2894      H2903   1.082       .  S
C2895      C2896   1.396       .  A
C2896      H2904   1.085       .  S
C2905      C2906   1.396       .  A
C2905      C2910   1.397       .  A
C2906      C2907   1.402       .  A
C2906      H2919   1.083       .  S
C2907      C2908   1.420       .  A
C2907      H2920   1.078       .  S
C2908      C2914   1.430       .  A
C2908      C2909   1.421       .  A
C2909      C2911   1.398       .  A
C2909      C2910   1.397       .  A
C2910      H2921   1.085       .  S
C2911      C2912   1.386       .  A
C2911      H2922   1.084       .  S
C2912      C2913   1.398       .  A
C2912      H2923   1.084       .  S
C2913      C2914   1.424       .  A
C2913      C2918   1.403       .  A
C2914      C2915   1.413       .  A
C2915      C2916   1.397       .  A
C2915      H2924   1.078       .  S
C2916      C2917   1.403       .  A
C2916      H2925   1.083       .  S
C2917      C2918   1.399       .  A
C2918      H2926   1.085       .  S
C2927      C2928   1.399       .  A
C2927      C2932   1.402       .  A
C2928      C2929   1.398       .  A
C2928      H2941   1.083       .  S
C2929      C2930   1.415       .  A
C2929      H2942   1.078       .  S
C2930      C2936   1.429       .  A
C2930      C2931   1.421       .  A
C2931      C2933   1.400       .  A
C2931      C2932   1.405       .  A
C2932      H2943   1.085       .  S
C2933      C2934   1.391       .  A
C2933      H2944   1.084       .  S
C2934      C2935   1.400       .  A
C2934      H2945   1.084       .  S
C2935      C2936   1.423       .  A
C2935      C2940   1.406       .  A
C2936      C2937   1.415       .  A
C2937      C2938   1.397       .  A
C2937      H2946   1.078       .  S
C2938      C2939   1.399       .  A
C2938      H2947   1.084       .  S
C2939      C2940   1.399       .  A
C2940      H2948   1.085       .  S
C2949      C2950   1.402       .  A
C2949      C2954   1.401       .  A
C2950      C2951   1.402       .  A
C2950      H2963   1.083       .  S
C2951      C2952   1.416       .  A
C2951      H2964   1.078       .  S
C2952      C2958   1.432       .  A
C2952      C2953   1.423       .  A
C2953      C2955   1.398       .  A
C2953      C2954   1.400       .  A
C2954      H2965   1.085       .  S
C2955      C2956   1.385       .  A
C2955      H2966   1.084       .  S
C2956      C2957   1.397       .  A
C2956      H2967   1.084       .  S
C2957      C2958   1.422       .  A
C2957      C2962   1.397       .  A
C2958      C2959   1.420       .  A
C2959      C2960   1.404       .  A
C2959      H2968   1.078       .  S
C2960      C2961   1.398       .  A
C2960      H2969   1.083       .  S
C2961      C2962   1.397       .  A
C2962      H2970   1.086       .  S
C2971      C2972   1.399       .  A
C2971      C2976   1.403       .  A
C2972      C2973   1.398       .  A
C2972      H2985   1.083       .  S
C2973      C2974   1.417       .  A
C2973      H2986   1.077       .  S
C2974      C2980   1.429       .  A
C2974      C2975   1.421       .  A
C2975      C2977   1.401       .  A
C2975      C2976   1.403       .  A
C2976      H2987   1.085       .  S
C2977      C2978   1.390       .  A
C2977      H2988   1.084       .  S
C2978      C2979   1.399       .  A
C2978      H2989   1.084       .  S
C2979      C2980   1.425       .  A
C2979      C2984   1.407       .  A
C2980      C2981   1.413       .  A
C2981      C2982   1.394       .  A
C2981      H2990   1.078       .  S
C2982      C2983   1.397       .  A
C2982      H2991   1.084       .  S
C2983      C2984   1.397       .  A
C2984      H2992   1.085       .  S
C2993      C2994   1.395       .  A
C2993      C2998   1.397       .  A
C2994      C2995   1.390       .  A
C2994      H3007   1.083       .  S
C2995      C2996   1.412       .  A
C2995      H3008   1.077       .  S
C2996      C3002   1.426       .  A
C2996      C2997   1.425       .  A
C2997      C2999   1.399       .  A
C2997      C2998   1.407       .  A
C2998      H3009   1.085       .  S
C2999      C3000   1.391       .  A
C2999      H3010   1.084       .  S
C3000      C3001   1.401       .  A
C3000      H3011   1.084       .  S
C3001      C3002   1.421       .  A
C3001      C3006   1.404       .  A
C3002      C3003   1.416       .  A
C3003      C3004   1.393       .  A
C3003      H3012   1.077       .  S
C3004      C3005   1.397       .  A
C3004      H3013   1.083       .  S
C3005      C3006   1.402       .  A
C3006      H3014   1.085       .  S
C3015      C3016   1.400       .  A
C3015      C3020   1.399       .  A
C3016      C3017   1.402       .  A
C3016      H3029   1.083       .  S
C3017      C3018   1.417       .  A
C3017      H3030   1.078       .  S
C3018      C3024   1.431       .  A
C3018      C3019   1.423       .  A
C3019      C3021   1.398       .  A
C3019      C3020   1.400       .  A
C3020      H3031   1.085       .  S
C3021      C3022   1.386       .  A
C3021      H3032   1.084       .  S
C3022      C3023   1.398       .  A
C3022      H3033   1.084       .  S
C3023      C3024   1.422       .  A
C3023      C3028   1.398       .  A
C3024      C3025   1.418       .  A
C3025      C3026   1.403       .  A
C3025      H3034   1.078       .  S
C3026      C3027   1.399       .  A
C3026      H3035   1.083       .  S
C3027      C3028   1.399       .  A
C3028      H3036   1.085       .  S
C3037      C3038   1.401       .  A
C3037      C3042   1.407       .  A
C3038      C3039   1.404       .  A
C3038      H3051   1.083       .  S
C3039      C3040   1.419       .  A
C3039      H3052   1.077       .  S
C3040      C3046   1.434       .  A
C3040      C3041   1.420       .  A
C3041      C3043   1.401       .  A
C3041      C3042   1.404       .  A
C3042      H3053   1.084       .  S
C3043      C3044   1.390       .  A
C3043      H3054   1.084       .  S
C3044      C3045   1.399       .  A
C3044      H3055   1.084       .  S
C3045      C3046   1.425       .  A
C3045      C3050   1.408       .  A
C3046      C3047   1.413       .  A
C3047      C3048   1.398       .  A
C3047      H3056   1.077       .  S
C3048      C3049   1.403       .  A
C3048      H3057   1.083       .  S
C3049      C3050   1.402       .  A
C3050      H3058   1.084       .  S
C3059      C3060   1.401       .  A
C3059      C3064   1.399       .  A
C3060      C3061   1.402       .  A
C3060      H3073   1.083       .  S
C3061      C3062   1.417       .  A
C3061      H3074   1.078       .  S
C3062      C3068   1.433       .  A
C3062      C3063   1.423       .  A
C3063      C3065   1.398       .  A
C3063      C3064   1.400       .  A
C3064      H3075   1.083       .  S
C3065      C3066   1.386       .  A
C3065      H3076   1.084       .  S
C3066      C3067   1.399       .  A
C3066      H3077   1.084       .  S
C3067      C3068   1.422       .  A
C3067      C3072   1.401       .  A
C3068      C3069   1.417       .  A
C3069      C3070   1.402       .  A
C3069      H3078   1.078       .  S
C3070      C3071   1.401       .  A
C3070      H3079   1.083       .  S
C3071      C3072   1.402       .  A
C3072      H3080   1.085       .  S
C3081      C3082   1.398       .  A
C3081      C3086   1.400       .  A
C3082      C3083   1.391       .  A
C3082      H3095   1.084       .  S
C3083      C3084   1.413       .  A
C3083      H3096   1.077       .  S
C3084      C3090   1.429       .  A
C3084      C3085   1.424       .  A
C3085      C3087   1.400       .  A
C3085      C3086   1.411       .  A
C3086      H3097   1.085       .  S
C3087      C3088   1.394       .  A
C3087      H3098   1.084       .  S
C3088      C3089   1.401       .  A
C3088      H3099   1.084       .  S
C3089      C3090   1.422       .  A
C3089      C3094   1.409       .  A
C3090      C3091   1.414       .  A
C3091      C3092   1.394       .  A
C3091      H3100   1.077       .  S
C3092      C3093   1.401       .  A
C3092      H3101   1.083       .  S
C3093      C3094   1.405       .  A
C3094      H3102   1.084       .  S
C3103      C3104   1.398       .  A
C3103      C3108   1.398       .  A
C3104      C3105   1.402       .  A
C3104      H3117   1.084       .  S
C3105      C3106   1.418       .  A
C3105      H3118   1.078       .  S
C3106      C3112   1.432       .  A
C3106      C3107   1.422       .  A
C3107      C3109   1.399       .  A
C3107      C3108   1.402       .  A
C3108      H3119   1.086       .  S
C3109      C3110   1.388       .  A
C3109      H3120   1.084       .  S
C3110      C3111   1.399       .  A
C3110      H3121   1.084       .  S
C3111      C3112   1.423       .  A
C3111      C3116   1.404       .  A
C3112      C3113   1.415       .  A
C3113      C3114   1.400       .  A
C3113      H3122   1.078       .  S
C3114      C3115   1.402       .  A
C3114      H3123   1.083       .  S
C3115      C3116   1.401       .  A
C3116      H3124   1.085       .  S
C3125      C3126   1.399       .  A
C3125      C3130   1.407       .  A
C3126      C3127   1.393       .  A
C3126      H3139   1.083       .  S
C3127      C3128   1.414       .  A
C3127      H3140   1.077       .  S
C3128      C3134   1.427       .  A
C3128      C3129   1.420       .  A
C3129      C3131   1.402       .  A
C3129      C3130   1.409       .  A
C3130      H3141   1.084       .  S
C3131      C3132   1.395       .  A
C3131      H3142   1.084       .  S
C3132      C3133   1.401       .  A
C3132      H3143   1.084       .  S
C3133      C3134   1.425       .  A
C3133      C3138   1.413       .  A
C3134      C3135   1.411       .  A
C3135      C3136   1.388       .  A
C3135      H3144   1.077       .  S
C3136      C3137   1.397       .  A
C3136      H3145   1.081       .  S
C3137      C3138   1.401       .  A
C3138      H3146   1.084       .  S
C3147      C3148   1.402       .  A
C3147      C3152   1.400       .  A
C3148      C3149   1.404       .  A
C3148      H3161   1.083       .  S
C3149      C3150   1.417       .  A
C3149      H3162   1.078       .  S
C3150      C3156   1.433   1_545  A
C3150      C3151   1.422       .  A
C3151      C3153   1.398   1_545  A
C3151      C3152   1.399       .  A
C3152      H3163   1.085       .  S
C3153      C3154   1.384       .  A
C3153      H3164   1.084   1_565  S
C3154      C3155   1.397       .  A
C3154      H3165   1.084       .  S
C3155      C3156   1.422       .  A
C3155      C3160   1.397       .  A
C3156      C3157   1.419       .  A
C3157      C3158   1.405       .  A
C3157      H3166   1.078       .  S
C3158      C3159   1.400       .  A
C3158      H3167   1.083       .  S
C3159      C3160   1.396       .  A
C3160      H3168   1.085       .  S
