geometry optimzed in LAMMPS
_audit_creation_date              2020-12-01 
_audit_creation_method            'lammps2cif' 
_symmetry_space_group_name_H-M    'P1' 
_symmetry_Int_Tables_number       1 
_symmetry_cell_setting            triclinic 
loop_ 
_symmetry_equiv_pos_as_xyz 
  x,y,z 
_cell_length_a                    40.32400462 
_cell_length_b                    40.33215172909173 
_cell_length_c                    46.10802164670628 
_cell_angle_alpha                 89.99524826959302 
_cell_angle_beta                  89.9979865466301 
_cell_angle_gamma                 89.85983871876546 
loop_ 
_atom_site_label 
_atom_site_type_symbol 
_atom_site_fract_x 
_atom_site_fract_y 
_atom_site_fract_z 
_atom_site_charge 
Fe1        Fe  0.54383389  0.73155368  0.49075015     1.65800
Fe2        Fe  0.57185852  0.66218286  0.45715362     1.73200
Fe3        Fe  0.62150707  0.70155698  0.00544709     1.54400
O4          O  0.62754179  0.75102403  0.99650950    -0.80100
O5          O  0.60011797  0.62757894  0.47926434    -0.78400
O6          O  0.57628606  0.77193075  0.49438130    -0.82600
O7          O  0.54549940  0.72505136  0.03461927    -0.77500
O8          O  0.64896958  0.69014582  0.46777899    -0.79200
O9          O  0.53106340  0.64668805  0.47979311    -0.82000
C10         C  0.56874861  0.71995457  0.05248598     0.98800
C11         C  0.60761090  0.77530709  0.49629044     1.06200
O12         O  0.57927012  0.69873247  0.48444853    -1.11000
O13         O  0.54175581  0.68966377  0.42990783    -0.73400
O14         O  0.53792886  0.74106706  0.44704306    -0.76900
O15         O  0.59836560  0.71287644  0.04497609    -0.77600
C16         C  0.53245035  0.71954662  0.42761845     0.97700
O17         O  0.50668052  0.69535229  0.98939223    -0.75500
O18         O  0.61253495  0.67563421  0.43327046    -0.80700
C19         C  0.61560487  0.62692485  0.00308989     1.00300
C20         C  0.64175459  0.68236372  0.44162800     1.06200
O21         O  0.62105075  0.65261916  0.01795316    -0.76400
C22         C  0.50629510  0.66379836  0.48774802     1.04500
Fe23       Fe  0.76210690  0.51320587  0.28603472     1.65800
Fe24       Fe  0.69271757  0.54129529  0.31958759     1.73200
Fe25       Fe  0.73217733  0.59088370  0.27128527     1.54400
O26         O  0.78165892  0.59686852  0.28021832    -0.80100
O27         O  0.65813835  0.56954143  0.29743674    -0.78400
O28         O  0.80252379  0.54561026  0.28242857    -0.82600
O29         O  0.75564100  0.51486348  0.24215640    -0.77500
O30         O  0.72078743  0.61837075  0.30893878    -0.79200
O31         O  0.67720780  0.50049702  0.29697469    -0.82000
C32         C  0.75054047  0.53809676  0.22427572     0.98800
C33         C  0.80592944  0.57692272  0.28049709     1.06200
O34         O  0.72930144  0.54866551  0.29230446    -1.11000
O35         O  0.72016167  0.51119520  0.34686658    -0.73400
O36         O  0.77157960  0.50730414  0.32974792    -0.76900
O37         O  0.74346979  0.56771386  0.23176918    -0.77600
C38         C  0.75003624  0.50184781  0.34916406     0.97700
O39         O  0.72587002  0.47608949  0.28739328    -0.75500
O40         O  0.70617466  0.58197682  0.34344883    -0.80700
C41         C  0.65751760  0.58502119  0.27360784     1.00300
C42         C  0.71295702  0.61117784  0.33508485     1.06200
O43         O  0.68323708  0.59047972  0.25877363    -0.76400
C44         C  0.69431212  0.47571613  0.28904751     1.04500
Fe45       Fe  0.54427610  0.23163195  0.24091069     1.65800
Fe46       Fe  0.57235262  0.30131840  0.20798044     1.73200
Fe47       Fe  0.62208579  0.26082435  0.25574932     1.54400
O48         O  0.59901314  0.24919321  0.29521622    -0.80100
O49         O  0.61308757  0.28811998  0.18397780    -0.78400
O50         O  0.54611085  0.23745000  0.28484250    -0.82600
O51         O  0.57659381  0.19096950  0.24404924    -0.77500
O52         O  0.62190999  0.30959869  0.26873017    -0.79200
O53         O  0.54238298  0.27432654  0.18034104    -0.82000
C54         C  0.60789608  0.18731789  0.24596497     0.98800
C55         C  0.56941818  0.24214449  0.30271103     1.06200
O56         O  0.57977328  0.26430447  0.23487248    -1.11000
O57         O  0.53147689  0.31668481  0.23070380    -0.73400
O58         O  0.50717742  0.26805367  0.24008104    -0.76900
O59         O  0.62791293  0.21142443  0.24635022    -0.77600
C60         C  0.50677206  0.29961402  0.23867265     0.97700
O61         O  0.53821769  0.22279973  0.19712569    -0.75500
O62         O  0.60049180  0.33544629  0.23058658    -0.80700
C63         C  0.64226112  0.28075928  0.19213456     1.00300
C64         C  0.61622251  0.33558943  0.25429661     1.06200
O65         O  0.64951472  0.27241026  0.21814773    -0.76400
C66         C  0.53296321  0.24454387  0.17781953     1.04500
Fe67       Fe  0.76141268  0.44880360  0.03592363     1.65800
Fe68       Fe  0.69170763  0.42071086  0.06882600     1.73200
Fe69       Fe  0.73225664  0.37100536  0.02107701     1.54400
O70         O  0.74393878  0.39407213  0.48161466    -0.80100
O71         O  0.70490955  0.37999049  0.09283801    -0.78400
O72         O  0.75560892  0.44697853  0.49198801    -0.82600
O73         O  0.80209472  0.41650075  0.03279762    -0.77500
O74         O  0.68348979  0.37119864  0.00805155    -0.79200
O75         O  0.71867722  0.45069296  0.09647492    -0.82000
C76         C  0.80575908  0.38520320  0.03091254     0.98800
C77         C  0.75096030  0.42366852  0.47411818     1.06200
O78         O  0.72874604  0.41330517  0.04195089    -1.11000
O79         O  0.67633300  0.46156739  0.04609417    -0.73400
O80         O  0.72497195  0.48588083  0.03674969    -0.76900
O81         O  0.78165350  0.36518295  0.03053197    -0.77600
C82         C  0.69340488  0.48627598  0.03814508     0.97700
O83         O  0.77022359  0.45485444  0.07971182    -0.75500
O84         O  0.65760365  0.39257030  0.04619569    -0.80700
C85         C  0.71227154  0.35082371  0.08468066     1.00300
C86         C  0.65748157  0.37687727  0.02246897     1.06200
O87         O  0.72062542  0.34357631  0.05866783    -0.76400
C88         C  0.74846282  0.46012084  0.09900398     1.04500
Fe89       Fe  0.47989483  0.23108627  0.49074529     1.65800
Fe90       Fe  0.45171937  0.30040916  0.45718532     1.73200
Fe91       Fe  0.40220060  0.26093898  0.00552825     1.54400
O92         O  0.39623417  0.21146538  0.99658842    -0.80100
O93         O  0.42342648  0.33495815  0.47932172    -0.78400
O94         O  0.44752602  0.19065706  0.49445348    -0.82600
O95         O  0.47830660  0.23761158  0.03461537    -0.77500
O96         O  0.37467439  0.27231920  0.46789211    -0.79200
O97         O  0.49250438  0.31597589  0.47978739    -0.82000
C98         C  0.45506222  0.24263233  0.05250587     0.98800
C99         C  0.41621076  0.18722095  0.49637794     1.06200
O100        O  0.44439981  0.26384486  0.48448674    -1.11000
O101        O  0.48185514  0.27298558  0.42992115    -0.73400
O102        O  0.48570360  0.22157180  0.44703431    -0.76900
O103        O  0.42541811  0.24963712  0.04502578    -0.77600
C104        C  0.49118057  0.24310958  0.42762157     0.97700
O105        O  0.51698852  0.26733960  0.98929282    -0.75500
O106        O  0.41104909  0.28687817  0.43334465    -0.80700
C107        C  0.40799767  0.33558140  0.00317688     1.00300
C108        C  0.38185081  0.28010699  0.44173321     1.06200
O109        O  0.40260506  0.30987224  0.01803976    -0.76400
C110        C  0.51732367  0.29889367  0.48766379     1.04500
Fe111      Fe  0.26157809  0.44934048  0.28623211     1.65800
Fe112      Fe  0.33094553  0.42125400  0.31979677     1.73200
Fe113      Fe  0.29153738  0.37169363  0.27147068     1.54400
O114        O  0.24206787  0.36566429  0.28043320    -0.80100
O115        O  0.36553374  0.39296809  0.29767929    -0.78400
O116        O  0.22117815  0.41691666  0.28253668    -0.82600
O117        O  0.26811779  0.44775035  0.24236688    -0.77500
O118        O  0.30296197  0.34419362  0.30910371    -0.79200
O119        O  0.34647350  0.46204472  0.29717121    -0.82000
C120        C  0.27316735  0.42451013  0.22448622     0.98800
C121        C  0.21778729  0.38559875  0.28063833     1.06200
O122        O  0.29438693  0.41389231  0.29249973    -1.11000
O123        O  0.30347607  0.45136784  0.34704640    -0.73400
O124        O  0.25204622  0.45514923  0.32993991    -0.76900
O125        O  0.28019627  0.39488085  0.23197441    -0.77600
C126        C  0.27358111  0.46065111  0.34934978     0.97700
O127        O  0.29780224  0.48647492  0.28766571    -0.75500
O128        O  0.31744369  0.38058123  0.34365458    -0.80700
C129        C  0.36617928  0.37752341  0.27383330     1.00300
C130        C  0.31072109  0.35137729  0.33526483     1.06200
O131        O  0.34047923  0.37215335  0.25894807    -0.76400
C132        C  0.32936467  0.48683948  0.28927770     1.04500
Fe133      Fe  0.47946883  0.73075477  0.24079011     1.65800
Fe134      Fe  0.45124666  0.66115078  0.20787248     1.73200
Fe135      Fe  0.40165925  0.70167507  0.25571065     1.54400
O136        O  0.42479083  0.71337470  0.29513634    -0.80100
O137        O  0.41053931  0.67448273  0.18390379    -0.78400
O138        O  0.47773686  0.72487420  0.28472105    -0.82600
O139        O  0.44720731  0.77144526  0.24403623    -0.77500
O140        O  0.40187261  0.65291082  0.26873766    -0.79200
O141        O  0.48128205  0.68810331  0.18023989    -0.82000
C142        C  0.41590732  0.77513854  0.24591332     0.98800
C143        C  0.45441709  0.72032294  0.30260865     1.06200
O144        O  0.44392480  0.69814642  0.23478736    -1.11000
O145        O  0.49209037  0.64568394  0.23057562    -0.73400
O146        O  0.51650928  0.69428302  0.23983745    -0.76900
O147        O  0.39585347  0.75106038  0.24623720    -0.77600
C148        C  0.51685185  0.66272074  0.23845976     0.97700
O149        O  0.48540681  0.73963689  0.19700368    -0.75500
O150        O  0.42302661  0.62706943  0.23047916    -0.80700
C151        C  0.38137503  0.68178584  0.19212166     1.00300
C152        C  0.40741979  0.62692558  0.25425543     1.06200
O153        O  0.37416323  0.69004890  0.21816271    -0.76400
C154        C  0.49069273  0.71789027  0.17771024     1.04500
Fe155      Fe  0.26232413  0.51366332  0.03611974     1.65800
Fe156      Fe  0.33198248  0.54181505  0.06902679     1.73200
Fe157      Fe  0.29146437  0.59144362  0.02121153     1.54400
O158        O  0.27976483  0.56834558  0.48177884    -0.80100
O159        O  0.31868391  0.58251727  0.09300823    -0.78400
O160        O  0.26815473  0.51543226  0.49218661    -0.82600
O161        O  0.22164205  0.54594664  0.03294359    -0.77500
O162        O  0.34023695  0.59122394  0.00818961    -0.79200
O163        O  0.30502225  0.51180443  0.09666279    -0.82000
C164        C  0.21797453  0.57724266  0.03106128     0.98800
C165        C  0.27275964  0.53874135  0.47430331     1.06200
O166        O  0.29497213  0.54917261  0.04212180    -1.11000
O167        O  0.34741390  0.50097277  0.04631136    -0.73400
O168        O  0.29878587  0.47661069  0.03701238    -0.76900
O169        O  0.24207464  0.59726891  0.03067924    -0.77600
C170        C  0.33035452  0.47624210  0.03839490     0.97700
O171        O  0.25347536  0.50768915  0.07990450    -0.75500
O172        O  0.36607931  0.57001176  0.04642494    -0.80700
C173        C  0.31136088  0.61167837  0.08480669     1.00300
C174        C  0.36622495  0.58564929  0.02266665     1.06200
O175        O  0.30309000  0.61890528  0.05877076    -0.76400
C176        C  0.27522696  0.50241151  0.09919795     1.04500
Fe177      Fe  0.04391799  0.23135730  0.24088461     1.65800
Fe178      Fe  0.07210044  0.16203577  0.20733512     1.73200
Fe179      Fe  0.12162118  0.20151702  0.25566020     1.54400
O180        O  0.12758411  0.25098607  0.24669392    -0.80100
O181        O  0.10040820  0.12749605  0.22947760    -0.78400
O182        O  0.07629154  0.27179524  0.24456359    -0.82600
O183        O  0.04551956  0.22483473  0.28475505    -0.77500
O184        O  0.14914530  0.19012386  0.21803136    -0.79200
O185        O  0.03131615  0.14646029  0.22994526    -0.82000
C186        C  0.06876985  0.21981882  0.30263940     0.98800
C187        C  0.10761002  0.27523278  0.24646677     1.06200
O188        O  0.07941701  0.19860325  0.23462681    -1.11000
O189        O  0.04195355  0.18945331  0.18006771    -0.73400
O190        O  0.03809150  0.24086591  0.19717387    -0.76900
O191        O  0.09841387  0.21282725  0.29515406    -0.77600
C192        C  0.03261813  0.21932710  0.17776482     0.97700
O193        O  0.00682623  0.19509118  0.23945333    -0.75500
O194        O  0.11276960  0.17557384  0.18348693    -0.80700
C195        C  0.11583921  0.12687882  0.25333190     1.00300
C196        C  0.14196944  0.18233796  0.19187463     1.06200
O197        O  0.12121894  0.15258984  0.26819154    -0.76400
C198        C  0.00649346  0.16353645  0.23782524     1.04500
Fe199      Fe  0.26230690  0.01318317  0.03638074     1.65800
Fe200      Fe  0.19295220  0.04127345  0.06994589     1.73200
Fe201      Fe  0.23236654  0.09083290  0.02161813     1.54400
O202        O  0.28182763  0.09686283  0.03060850    -0.80100
O203        O  0.15837872  0.06957832  0.04783244    -0.78400
O204        O  0.30270432  0.04560204  0.03267021    -0.82600
O205        O  0.25575805  0.01477034  0.49251665    -0.77500
O206        O  0.22091309  0.11832744  0.05924689    -0.79200
O207        O  0.17741009  0.00049957  0.04731636    -0.82000
C208        C  0.25074589  0.03802018  0.47463451     0.98800
C209        C  0.30610201  0.07692028  0.03079228     1.06200
O210        O  0.22950834  0.04863348  0.04264679    -1.11000
O211        O  0.22041075  0.01114104  0.09718825    -0.73400
O212        O  0.27184536  0.00738586  0.08008771    -0.76900
O213        O  0.24374115  0.06765482  0.48212303    -0.77600
C214        C  0.25030884  0.00187100  0.09949513     0.97700
O215        O  0.22607897  0.97605469  0.03783298    -0.75500
O216        O  0.20647465  0.08192689  0.09380629    -0.80700
C217        C  0.15773315  0.08499631  0.02397128     1.00300
C218        C  0.21317380  0.11113539  0.08541262     1.06200
O219        O  0.18343255  0.09035260  0.00907868    -0.76400
C220        C  0.19451611  0.97569798  0.03943863     1.04500
Fe221      Fe  0.04438578  0.73181233  0.49099162     1.65800
Fe222      Fe  0.07259894  0.80143226  0.45808816     1.73200
Fe223      Fe  0.12219271  0.76088204  0.00590418     1.54400
O224        O  0.09906438  0.74915384  0.04532957    -0.80100
O225        O  0.11329594  0.78810779  0.43410111    -0.78400
O226        O  0.04611007  0.73768641  0.03492229    -0.82600
O227        O  0.07664381  0.69112223  0.49423844    -0.77500
O228        O  0.12197429  0.80963652  0.01894905    -0.79200
O229        O  0.04254857  0.77449512  0.43046240    -0.82000
C230        C  0.10794396  0.68742682  0.49609691     0.98800
C231        C  0.06943572  0.74221587  0.05280642     1.06200
O232        O  0.07992635  0.76442290  0.48499091    -1.11000
O233        O  0.03176953  0.81688736  0.48081467    -0.73400
O234        O  0.00734515  0.76827937  0.49003673    -0.76900
O235        O  0.12799895  0.71150386  0.49641014    -0.77600
C236        C  0.00700649  0.79984256  0.48868472     0.97700
O237        O  0.03846776  0.72294576  0.44720584    -0.75500
O238        O  0.10083215  0.83549697  0.48069159    -0.80700
C239        C  0.14246162  0.78079780  0.44231098     1.00300
C240        C  0.11643599  0.83562807  0.00446986     1.06200
O241        O  0.14967889  0.77253018  0.46835101    -0.76400
C242        C  0.03315939  0.74470267  0.42792399     1.04500
Fe243      Fe  0.26159177  0.94884887  0.28628566     1.65800
Fe244      Fe  0.19194847  0.92069019  0.31922244     1.73200
Fe245      Fe  0.23242372  0.87107897  0.27137398     1.54400
O246        O  0.24408680  0.89420041  0.23194016    -0.80100
O247        O  0.20526089  0.87997971  0.34319111    -0.78400
O248        O  0.25573279  0.94710318  0.24235453    -0.82600
O249        O  0.30226844  0.91656394  0.28306357    -0.77500
O250        O  0.18363662  0.87129973  0.25838897    -0.79200
O251        O  0.21892876  0.95069481  0.34684583    -0.82000
C252        C  0.30592967  0.88527001  0.28114664     0.98800
C253        C  0.25110407  0.92380461  0.22446872     1.06200
O254        O  0.22894150  0.91333950  0.29229693    -1.11000
O255        O  0.17650914  0.96153836  0.29651500    -0.73400
O256        O  0.22513475  0.98590526  0.28720803    -0.76900
O257        O  0.28182684  0.86524576  0.28078861    -0.77600
C258        C  0.19356610  0.98627150  0.28859533     0.97700
O259        O  0.27047010  0.95480243  0.33007002    -0.75500
O260        O  0.15782561  0.89249940  0.29664234    -0.80700
C261        C  0.21257014  0.85081974  0.33498084     1.00300
C262        C  0.15765889  0.87686714  0.27288328     1.06200
O263        O  0.22082987  0.84360148  0.30893991    -0.76400
C264        C  0.24872610  0.96008511  0.34937067     1.04500
Fe265      Fe  0.98004638  0.73094175  0.24097260     1.65800
Fe266      Fe  0.95199423  0.80031607  0.20738330     1.73200
Fe267      Fe  0.90235255  0.76090492  0.25567204     1.54400
O268        O  0.89634991  0.71143762  0.24673679    -0.80100
O269        O  0.92373276  0.83490588  0.22950950    -0.78400
O270        O  0.94761021  0.69054936  0.24456279    -0.82600
O271        O  0.97835693  0.73741679  0.28484382    -0.77500
O272        O  0.87488331  0.77230616  0.21800880    -0.79200
O273        O  0.99280001  0.81581428  0.23000994    -0.82000
C274        C  0.95510895  0.74252895  0.30270896     0.98800
C275        C  0.91628712  0.68716154  0.24647107     1.06200
O276        O  0.94459491  0.76375370  0.23467414    -1.11000
O277        O  0.98209392  0.77284939  0.18012354    -0.73400
O278        O  0.98598129  0.72145138  0.19726781    -0.76900
O279        O  0.92549372  0.74960633  0.29519947    -0.77600
C280        C  0.99142956  0.74297566  0.17783749     0.97700
O281        O  0.01718814  0.76716030  0.23963846    -0.75500
O282        O  0.91130992  0.78687064  0.18350705    -0.80700
C283        C  0.90822241  0.83554036  0.25332494     1.00300
C284        C  0.88209345  0.78011902  0.19186292     1.06200
O285        O  0.90276997  0.80983672  0.26817663    -0.76400
C286        C  0.01757095  0.79871222  0.23797579     1.04500
Fe287      Fe  0.76171136  0.94922965  0.03622219     1.65800
Fe288      Fe  0.83108220  0.92115446  0.06979280     1.73200
Fe289      Fe  0.79165603  0.87156241  0.02149036     1.54400
O290        O  0.74217853  0.86555151  0.03043335    -0.80100
O291        O  0.86566321  0.89289042  0.04766849    -0.78400
O292        O  0.72130440  0.91681057  0.03257599    -0.82600
O293        O  0.76821591  0.94758811  0.49235046    -0.77500
O294        O  0.80307102  0.84408038  0.05914960    -0.79200
O295        O  0.84660728  0.96193039  0.04715692    -0.82000
C296        C  0.77328555  0.92434794  0.47447381     0.98800
C297        C  0.71790448  0.88549494  0.03065906     1.06200
O298        O  0.79451331  0.91377691  0.04250408    -1.11000
O299        O  0.80363251  0.95127598  0.09704766    -0.73400
O300        O  0.75220955  0.95511199  0.07993566    -0.76900
O301        O  0.78033565  0.89472558  0.48197201    -0.77600
C302        C  0.77375024  0.96059862  0.09934673     0.97700
O303        O  0.79794492  0.98635114  0.03760305    -0.75500
O304        O  0.81760074  0.88049074  0.09366722    -0.80700
C305        C  0.86630127  0.87744673  0.02382491     1.00300
C306        C  0.81086219  0.85128208  0.08530252     1.06200
O307        O  0.84059345  0.87201168  0.00897119    -0.76400
C308        C  0.82950462  0.98671600  0.03923821     1.04500
Fe309      Fe  0.97957269  0.23073882  0.49103182     1.65800
Fe310      Fe  0.95149664  0.16104862  0.45813014     1.73200
Fe311      Fe  0.90176909  0.20156864  0.00587743     1.54400
O312        O  0.92482895  0.21325906  0.04533587    -0.80100
O313        O  0.91078036  0.17426606  0.43411223    -0.78400
O314        O  0.97774889  0.22492885  0.03496595    -0.82600
O315        O  0.94725428  0.27140330  0.49416300    -0.77500
O316        O  0.90197342  0.15280686  0.01890276    -0.79200
O317        O  0.98149395  0.18801785  0.43049232    -0.82000
C318        C  0.91594906  0.27505835  0.49604223     0.98800
C319        C  0.95442793  0.22028483  0.05283334     1.06200
O320        O  0.94407883  0.19807037  0.48500754    -1.11000
O321        O  0.99235486  0.14567470  0.48087185    -0.73400
O322        O  0.01666507  0.19431177  0.49019923    -0.76900
O323        O  0.89593132  0.25095227  0.49641730    -0.77600
C324        C  0.01706591  0.16275027  0.48881469     0.97700
O325        O  0.98561086  0.23955859  0.44724513    -0.75500
O326        O  0.92332851  0.12694602  0.48074178    -0.80700
C327        C  0.88160417  0.18161249  0.44227239     1.00300
C328        C  0.90762866  0.12681328  0.00446589     1.06200
O329        O  0.87434676  0.18993725  0.46828919    -0.76400
C330        C  0.99089234  0.21780591  0.42795575     1.04500
Fe331      Fe  0.76237617  0.01363003  0.28612928     1.65800
Fe332      Fe  0.83206662  0.04172426  0.31904235     1.73200
Fe333      Fe  0.79154854  0.09141686  0.27126371     1.54400
O334        O  0.77986550  0.06833675  0.23180868    -0.80100
O335        O  0.81885107  0.08244685  0.34303786    -0.78400
O336        O  0.76821802  0.01542549  0.24219440    -0.82600
O337        O  0.72170379  0.04593468  0.28295273    -0.77500
O338        O  0.84032387  0.09120941  0.25824776    -0.79200
O339        O  0.80507472  0.01175083  0.34668820    -0.82000
C340        C  0.71804333  0.07723216  0.28106553     0.98800
C341        C  0.77285504  0.03873614  0.22431819     1.06200
O342        O  0.79504455  0.04912490  0.29215223    -1.11000
O343        O  0.84744701  0.00086171  0.29632854    -0.73400
O344        O  0.79880621  0.97654492  0.28700515    -0.76900
O345        O  0.74215026  0.09725155  0.28071329    -0.77600
C346        C  0.83037288  0.97614749  0.28840117     0.97700
O347        O  0.75353049  0.00761926  0.32991732    -0.75500
O348        O  0.86618913  0.06986173  0.29641473    -0.80700
C349        C  0.81150685  0.11161308  0.33486487     1.00300
C350        C  0.86632618  0.08554184  0.27267805     1.06200
O351        O  0.80317455  0.11885494  0.30884538    -0.76400
C352        C  0.77528164  0.00234381  0.34921529     1.04500
C353        C  0.85575044  0.17824250  0.42087834    -0.16900
C354        C  0.83837493  0.16997368  0.40075571     0.07100
C355        C  0.82319627  0.15482984  0.37636933     0.09000
C356        C  0.81489664  0.13747052  0.35624775    -0.17800
C357        C  0.89414337  0.09604577  0.01455512    -0.16900
C358        C  0.88025612  0.07070064  0.02107636     0.07100
C359        C  0.86230908  0.04156779  0.02729753     0.09000
C360        C  0.84680746  0.01673576  0.03239538    -0.17800
C361        C  0.76706725  0.98323059  0.37446946    -0.16900
C362        C  0.76551214  0.96566220  0.39560200     0.07100
C363        C  0.76759966  0.94617139  0.42102318     0.09000
C364        C  0.77055460  0.93296302  0.44435998    -0.17800
C365        C  0.76962451  0.03022786  0.19421891    -0.16900
C366        C  0.76625980  0.01705627  0.17091377     0.07100
C367        C  0.76379742  0.99753909  0.14553736     0.09000
C368        C  0.76524618  0.97987413  0.12445551    -0.17800
C369        C  0.85613178  0.78374288  0.17057964    -0.16900
C370        C  0.83856730  0.79231321  0.15064738     0.07100
C371        C  0.82306900  0.80778128  0.12652736     0.09000
C372        C  0.81448366  0.82532398  0.10658638    -0.17800
C373        C  0.84771231  0.94616164  0.28123046    -0.16900
C374        C  0.86314961  0.92128338  0.27587613     0.07100
C375        C  0.88097393  0.89202600  0.26951013     0.09000
C376        C  0.89477402  0.86653630  0.26307243    -0.17800
C377        C  0.04759262  0.81600921  0.24485676    -0.16900
C378        C  0.07241925  0.83151021  0.24999963     0.07100
C379        C  0.10154225  0.84946506  0.25627208     0.09000
C380        C  0.12688058  0.86336403  0.26281376    -0.17800
C381        C  0.89731385  0.86407436  0.01404002    -0.16900
C382        C  0.92283978  0.85035761  0.00757777     0.07100
C383        C  0.95213730  0.83261264  0.00119525     0.09000
C384        C  0.97703130  0.81720392  0.49583901    -0.17800
C385        C  0.16834857  0.78415153  0.42094899    -0.16900
C386        C  0.18574377  0.79241502  0.40083849     0.07100
C387        C  0.20092747  0.80756445  0.37645890     0.09000
C388        C  0.20921409  0.82494018  0.35634454    -0.17800
C389        C  0.01066893  0.73445775  0.15271207    -0.16900
C390        C  0.02829895  0.73301088  0.13160648     0.07100
C391        C  0.04777514  0.73550900  0.10620824     0.09000
C392        C  0.06092249  0.73892472  0.08289785    -0.17800
C393        C  0.96371000  0.73983492  0.33282488    -0.16900
C394        C  0.97692262  0.73692955  0.35616235     0.07100
C395        C  0.99643424  0.73490146  0.38157164     0.09000
C396        C  0.01402473  0.73649063  0.40268622    -0.17800
C397        C  0.17721749  0.94567530  0.03259228    -0.16900
C398        C  0.16173293  0.92084343  0.02745152     0.07100
C399        C  0.14380715  0.89171652  0.02115672     0.09000
C400        C  0.12993012  0.86638298  0.01458277    -0.17800
C401        C  0.12673200  0.09844127  0.01421586    -0.16900
C402        C  0.10122700  0.11221909  0.00777264     0.07100
C403        C  0.07194733  0.13000943  0.00139223     0.09000
C404        C  0.04705469  0.14542096  0.49601680    -0.17800
C405        C  0.25695572  0.97918349  0.37462389    -0.16900
C406        C  0.25852592  0.99673690  0.39576066     0.07100
C407        C  0.25644860  0.01621000  0.42118727     0.09000
C408        C  0.25349214  0.02940644  0.44452537    -0.17800
C409        C  0.25436988  0.93232068  0.19437945    -0.16900
C410        C  0.25778123  0.94547439  0.17107443     0.07100
C411        C  0.26028451  0.96496893  0.14569321     0.09000
C412        C  0.25883800  0.98261941  0.12460489    -0.17800
C413        C  0.89711046  0.09897716  0.26255876    -0.16900
C414        C  0.92247316  0.11281725  0.25599784     0.07100
C415        C  0.95162725  0.13072311  0.24974019     0.09000
C416        C  0.97647043  0.14621251  0.24463842    -0.17800
C417        C  0.06015047  0.22254735  0.33274884    -0.16900
C418        C  0.04697194  0.22549533  0.35609719     0.07100
C419        C  0.02752652  0.22757610  0.38154267     0.09000
C420        C  0.00998904  0.22601793  0.40269382    -0.17800
C421        C  0.01333263  0.22782776  0.15266251    -0.16900
C422        C  0.99564600  0.22930051  0.13159560     0.07100
C423        C  0.97610371  0.22686812  0.10623344     0.09000
C424        C  0.96292416  0.22351686  0.08293149    -0.17800
C425        C  0.20957133  0.13710797  0.10667304    -0.16900
C426        C  0.20101132  0.15468442  0.12659267     0.07100
C427        C  0.18552829  0.17018284  0.15069584     0.09000
C428        C  0.16795437  0.17875157  0.17061694    -0.17800
C429        C  0.17620916  0.01624221  0.28141417    -0.16900
C430        C  0.16078953  0.04112143  0.27602746     0.07100
C431        C  0.14301401  0.07039176  0.26960963     0.09000
C432        C  0.12926069  0.09589095  0.26312597    -0.17800
C433        C  0.18538964  0.59132299  0.02666722    -0.16900
C434        C  0.16177085  0.60773245  0.01893773     0.07100
C435        C  0.13835123  0.63120187  0.00829808     0.09000
C436        C  0.12199055  0.65484174  0.00054349    -0.17800
C437        C  0.33850405  0.87119387  0.27667389    -0.16900
C438        C  0.36210398  0.85479904  0.26887502     0.07100
C439        C  0.38550582  0.83134980  0.25816955     0.09000
C440        C  0.40186103  0.80772191  0.25037833    -0.17800
C441        C  0.35548433  0.67841915  0.17076832    -0.16900
C442        C  0.33810334  0.67012706  0.15066038     0.07100
C443        C  0.32295536  0.65494232  0.12628478     0.09000
C444        C  0.31470067  0.63755100  0.10617410    -0.17800
C445        C  0.12179751  0.30771060  0.25090882    -0.16900
C446        C  0.13827957  0.33130366  0.25840859     0.07100
C447        C  0.16176879  0.35483897  0.26866055     0.09000
C448        C  0.18532954  0.37136305  0.27617356    -0.17800
C449        C  0.34666067  0.51686307  0.28241531    -0.16900
C450        C  0.36214254  0.54169479  0.27725830     0.07100
C451        C  0.38006303  0.57082414  0.27094697     0.09000
C452        C  0.39393330  0.59616178  0.26436598    -0.17800
C453        C  0.27043947  0.43312660  0.19437758    -0.16900
C454        C  0.26749658  0.44631431  0.17103421     0.07100
C455        C  0.26543038  0.46577453  0.14559957     0.09000
C456        C  0.26700477  0.48331926  0.12445676    -0.17800
C457        C  0.26505356  0.47990610  0.37445761    -0.16900
C458        C  0.26359853  0.49756501  0.39553868     0.07100
C459        C  0.26608544  0.51707329  0.42091150     0.09000
C460        C  0.26948760  0.53023406  0.44421320    -0.17800
C461        C  0.40203831  0.15474955  0.00087772    -0.16900
C462        C  0.38558233  0.13116590  0.00844209     0.07100
C463        C  0.36211582  0.10764979  0.01876322     0.09000
C464        C  0.33855957  0.09114348  0.02631383    -0.17800
C465        C  0.35587040  0.28369202  0.42047149    -0.16900
C466        C  0.33831384  0.29227435  0.40054246     0.07100
C467        C  0.32285590  0.30779941  0.37643787     0.09000
C468        C  0.31431319  0.32539618  0.35652369    -0.17800
C469        C  0.39459731  0.36657773  0.01296812    -0.16900
C470        C  0.38086710  0.39209153  0.01944143     0.07100
C471        C  0.36311506  0.42137976  0.02584255     0.09000
C472        C  0.34770762  0.44626902  0.03121738    -0.17800
C473        C  0.90184633  0.30763550  0.00044264    -0.16900
C474        C  0.88543332  0.33125554  0.00816830     0.07100
C475        C  0.86197445  0.35470680  0.01878775     0.09000
C476        C  0.83834634  0.37111248  0.02651297    -0.17800
C477        C  0.54734716  0.31620776  0.49446960    -0.16900
C478        C  0.57219278  0.33168969  0.99956155     0.07100
C479        C  0.60134634  0.34959355  0.00580086     0.09000
C480        C  0.62670637  0.36343710  0.01235013    -0.17800
C481        C  0.62199321  0.15474615  0.25040273    -0.16900
C482        C  0.63839788  0.13113883  0.25817270     0.07100
C483        C  0.66184486  0.10770965  0.26884949     0.09000
C484        C  0.68546368  0.09131979  0.27662141    -0.17800
C485        C  0.47678818  0.31695241  0.24588186    -0.16900
C486        C  0.45191569  0.33239688  0.25126368     0.07100
C487        C  0.42266431  0.35023700  0.25764810     0.09000
C488        C  0.39717783  0.36405373  0.26408919    -0.17800
C489        C  0.56090944  0.23894222  0.33280847    -0.16900
C490        C  0.54771540  0.23559610  0.35610511     0.07100
C491        C  0.52815833  0.23315000  0.38145762     0.09000
C492        C  0.51046448  0.23460899  0.40252037    -0.17800
C493        C  0.51386951  0.23633403  0.15255383    -0.16900
C494        C  0.49633146  0.23479658  0.13140088     0.07100
C495        C  0.47687934  0.23691099  0.10595837     0.09000
C496        C  0.46369073  0.23988617  0.08261522    -0.17800
C497        C  0.66811426  0.28414835  0.17073809    -0.16900
C498        C  0.68546700  0.29244433  0.15060549     0.07100
C499        C  0.70060934  0.30760942  0.12620655     0.09000
C500        C  0.70888714  0.32497211  0.10607589    -0.17800
C501        C  0.90204934  0.65470234  0.25087754    -0.16900
C502        C  0.88552611  0.63113098  0.25835864     0.07100
C503        C  0.86199446  0.60762915  0.26859169     0.09000
C504        C  0.83840379  0.59113406  0.27607942    -0.17800
C505        C  0.62970300  0.36636447  0.26437350    -0.16900
C506        C  0.64358551  0.39171213  0.27089480     0.07100
C507        C  0.66152259  0.42085115  0.27711849     0.09000
C508        C  0.67701405  0.44569051  0.28221336    -0.17800
C509        C  0.62651163  0.59841153  0.26381687    -0.16900
C510        C  0.60099836  0.61215093  0.25734553     0.07100
C511        C  0.57171519  0.62992308  0.25095665     0.09000
C512        C  0.54682817  0.64534873  0.24560331    -0.17800
C513        C  0.75666041  0.47924155  0.12425580    -0.16900
C514        C  0.75822341  0.49680531  0.14538875     0.07100
C515        C  0.75616770  0.51628283  0.17081763     0.09000
C516        C  0.75324606  0.52948019  0.19416086    -0.17800
C517        C  0.75853069  0.48257226  0.37427516    -0.16900
C518        C  0.75998597  0.46489581  0.39535033     0.07100
C519        C  0.75753736  0.44535928  0.42071697     0.09000
C520        C  0.75418402  0.43217551  0.44401883    -0.17800
C521        C  0.62185615  0.80775268  0.00076979    -0.16900
C522        C  0.63836555  0.83130424  0.00832269     0.07100
C523        C  0.66187085  0.85478793  0.01863637     0.09000
C524        C  0.68544077  0.87127765  0.02618461    -0.17800
C525        C  0.47627370  0.64651037  0.49463479    -0.16900
C526        C  0.45144817  0.63101183  0.99977702     0.07100
C527        C  0.42232858  0.61305432  0.00604220     0.09000
C528        C  0.39699285  0.59915308  0.01258203    -0.17800
C529        C  0.50982707  0.72610378  0.15246700    -0.16900
C530        C  0.52741686  0.72767652  0.13134783     0.07100
C531        C  0.54693013  0.72561568  0.10593738     0.09000
C532        C  0.56014652  0.72267738  0.08260239    -0.17800
C533        C  0.51320885  0.72807692  0.40249779    -0.16900
C534        C  0.49557324  0.72952086  0.38139653     0.07100
C535        C  0.47608870  0.72701665  0.35600528     0.09000
C536        C  0.46293489  0.72360199  0.33269898    -0.17800
C537        C  0.66771223  0.67874934  0.42033966    -0.16900
C538        C  0.68527182  0.67018140  0.40040395     0.07100
C539        C  0.70076449  0.65470119  0.37628930     0.09000
C540        C  0.70934418  0.63714265  0.35635955    -0.17800
C541        C  0.62903420  0.59591584  0.01283129    -0.16900
C542        C  0.64281595  0.57040915  0.01925163     0.07100
C543        C  0.66062677  0.54113664  0.02559983     0.09000
C544        C  0.67606168  0.51625542  0.03095384    -0.17800
Fe545      Fe  0.54383448  0.73155448  0.99074988     1.65800
Fe546      Fe  0.57185858  0.66218312  0.95715376     1.73200
Fe547      Fe  0.62150678  0.70155701  0.50544680     1.54400
O548        O  0.62754108  0.75102397  0.49650869    -0.80100
O549        O  0.60011673  0.62757872  0.97926511    -0.78400
O550        O  0.57628703  0.77193125  0.99438114    -0.82600
O551        O  0.54549914  0.72505061  0.53461952    -0.77500
O552        O  0.64897020  0.69014604  0.96777946    -0.79200
O553        O  0.53106270  0.64668921  0.97979269    -0.82000
C554        C  0.56874863  0.71995458  0.55248607     0.98800
C555        C  0.60761172  0.77530732  0.99629085     1.06200
O556        O  0.57927045  0.69873281  0.98444856    -1.11000
O557        O  0.54175703  0.68966453  0.92990739    -0.73400
O558        O  0.53792988  0.74106779  0.94704272    -0.76900
O559        O  0.59836566  0.71287688  0.54497601    -0.77600
C560        C  0.53245176  0.71954742  0.92761795     0.97700
O561        O  0.50668052  0.69535081  0.48939264    -0.75500
O562        O  0.61253579  0.67563339  0.93327107    -0.80700
C563        C  0.61560575  0.62692500  0.50308933     1.00300
C564        C  0.64175532  0.68236338  0.94162860     1.06200
O565        O  0.62105058  0.65261924  0.51795307    -0.76400
C566        C  0.50629463  0.66379985  0.98774751     1.04500
Fe567      Fe  0.76210590  0.51320588  0.78603542     1.65800
Fe568      Fe  0.69271592  0.54129526  0.81958716     1.73200
Fe569      Fe  0.73217636  0.59088346  0.77128512     1.54400
O570        O  0.78165784  0.59686843  0.78021830    -0.80100
O571        O  0.65813690  0.56954127  0.79743590    -0.78400
O572        O  0.80252277  0.54561028  0.78242899    -0.82600
O573        O  0.75564021  0.51486272  0.74215703    -0.77500
O574        O  0.72078640  0.61837060  0.80893860    -0.79200
O575        O  0.67720666  0.50049705  0.79697402    -0.82000
C576        C  0.75053960  0.53809580  0.72427611     0.98800
C577        C  0.80592841  0.57692271  0.78049728     1.06200
O578        O  0.72930021  0.54866545  0.79230447    -1.11000
O579        O  0.72015971  0.51119515  0.84686648    -0.73400
O580        O  0.77157814  0.50730513  0.82974882    -0.76900
O581        O  0.74346895  0.56771300  0.73176927    -0.77600
C582        C  0.75003448  0.50184831  0.84916450     0.97700
O583        O  0.72586919  0.47608932  0.78739432    -0.75500
O584        O  0.70617263  0.58197680  0.84344849    -0.80700
C585        C  0.65751648  0.58502104  0.77360703     1.00300
C586        C  0.71295566  0.61117775  0.83508461     1.06200
O587        O  0.68323623  0.59047972  0.75877317    -0.76400
C588        C  0.69431128  0.47571603  0.78904770     1.04500
Fe589      Fe  0.54427625  0.23163171  0.74091029     1.65800
Fe590      Fe  0.57235237  0.30131826  0.70797980     1.73200
Fe591      Fe  0.62208578  0.26082472  0.75574878     1.54400
O592        O  0.59901343  0.24919322  0.79521568    -0.80100
O593        O  0.61308750  0.28812016  0.68397722    -0.78400
O594        O  0.54611120  0.23744976  0.78484214    -0.82600
O595        O  0.57659440  0.19096960  0.74404853    -0.77500
O596        O  0.62190926  0.30959900  0.76872977    -0.79200
O597        O  0.54238296  0.27432618  0.68034040    -0.82000
C598        C  0.60789674  0.18731821  0.74596409     0.98800
C599        C  0.56941849  0.24214439  0.80271056     1.06200
O600        O  0.57977323  0.26430440  0.73487188    -1.11000
O601        O  0.53147642  0.31668435  0.73070306    -0.73400
O602        O  0.50717733  0.26805314  0.74008079    -0.76900
O603        O  0.62791343  0.21142485  0.74634949    -0.77600
C604        C  0.50677180  0.29961350  0.73867211     0.97700
O605        O  0.53821742  0.22279950  0.69712535    -0.75500
O606        O  0.60049121  0.33544639  0.73058602    -0.80700
C607        C  0.64226112  0.28075998  0.69213408     1.00300
C608        C  0.61622160  0.33558966  0.75429617     1.06200
O609        O  0.64951469  0.27241116  0.71814736    -0.76400
C610        C  0.53296289  0.24454359  0.67781909     1.04500
Fe611      Fe  0.76141392  0.44880316  0.53592342     1.65800
Fe612      Fe  0.69170795  0.42071107  0.56882494     1.73200
Fe613      Fe  0.73225726  0.37100504  0.52107632     1.54400
O614        O  0.74393920  0.39407222  0.98161540    -0.80100
O615        O  0.70490874  0.37999023  0.59283688    -0.78400
O616        O  0.75560674  0.44697924  0.99198836    -0.82600
O617        O  0.80209580  0.41650032  0.53279807    -0.77500
O618        O  0.68349026  0.37119745  0.50805134    -0.79200
O619        O  0.71867758  0.45069241  0.59647442    -0.82000
C620        C  0.80576003  0.38520276  0.53091193     0.98800
C621        C  0.75095942  0.42366876  0.97411871     1.06200
O622        O  0.72874675  0.41330495  0.54195024    -1.11000
O623        O  0.67633435  0.46156796  0.54609307    -0.73400
O624        O  0.72497364  0.48588080  0.53674890    -0.76900
O625        O  0.78165436  0.36518277  0.53053029    -0.77600
C626        C  0.69340659  0.48627628  0.53814403     0.97700
O627        O  0.77022411  0.45485415  0.57971173    -0.75500
O628        O  0.65760366  0.39257153  0.54619416    -0.80700
C629        C  0.71227198  0.35082367  0.58467998     1.00300
C630        C  0.65748177  0.37687751  0.52246802     1.06200
O631        O  0.72062701  0.34357612  0.55866743    -0.76400
C632        C  0.74846311  0.46012026  0.59900382     1.04500
Fe633      Fe  0.47989515  0.23108563  0.99074479     1.65800
Fe634      Fe  0.45171970  0.30040880  0.95718533     1.73200
Fe635      Fe  0.40219997  0.26093930  0.50552809     1.54400
O636        O  0.39623377  0.21146568  0.49658825    -0.80100
O637        O  0.42342670  0.33495781  0.97932171    -0.78400
O638        O  0.44752625  0.19065653  0.99445243    -0.82600
O639        O  0.47830604  0.23761286  0.53461579    -0.77500
O640        O  0.37467484  0.27231904  0.96789241    -0.79200
O641        O  0.49250464  0.31597532  0.97978767    -0.82000
C642        C  0.45506143  0.24263326  0.55250611     0.98800
C643        C  0.41621106  0.18722055  0.99637725     1.06200
O644        O  0.44440024  0.26384441  0.98448664    -1.11000
O645        O  0.48185556  0.27298551  0.92992097    -0.73400
O646        O  0.48570382  0.22157160  0.94703376    -0.76900
O647        O  0.42541721  0.24963757  0.54502575    -0.77600
C648        C  0.49118089  0.24310956  0.92762114     0.97700
O649        O  0.51698823  0.26734030  0.48929295    -0.75500
O650        O  0.41104937  0.28687771  0.93334472    -0.80700
C651        C  0.40799719  0.33558169  0.50317677     1.00300
C652        C  0.38185111  0.28010677  0.94173354     1.06200
O653        O  0.40260427  0.30987251  0.51803954    -0.76400
C654        C  0.51732387  0.29889299  0.98766411     1.04500
Fe655      Fe  0.26157871  0.44934070  0.78623202     1.65800
Fe656      Fe  0.33094579  0.42125401  0.81979697     1.73200
Fe657      Fe  0.29153720  0.37169350  0.77147132     1.54400
O658        O  0.24206780  0.36566446  0.78043449    -0.80100
O659        O  0.36553374  0.39296761  0.79767951    -0.78400
O660        O  0.22117863  0.41691715  0.78253616    -0.82600
O661        O  0.26811888  0.44775038  0.74236689    -0.77500
O662        O  0.30296223  0.34419381  0.80910437    -0.79200
O663        O  0.34647411  0.46204444  0.79717120    -0.82000
C664        C  0.27316740  0.42450965  0.72448645     0.98800
C665        C  0.21778749  0.38559909  0.78063856     1.06200
O666        O  0.29438715  0.41389232  0.79250000    -1.11000
O667        O  0.30347633  0.45136825  0.84704637    -0.73400
O668        O  0.25204651  0.45514943  0.82993969    -0.76900
O669        O  0.28019549  0.39488029  0.73197501    -0.77600
C670        C  0.27358135  0.46065140  0.84934966     0.97700
O671        O  0.29780300  0.48647501  0.78766604    -0.75500
O672        O  0.31744369  0.38058166  0.84365512    -0.80700
C673        C  0.36617906  0.37752303  0.77383339     1.00300
C674        C  0.31072122  0.35137766  0.83526552     1.06200
O675        O  0.34047895  0.37215326  0.75894824    -0.76400
C676        C  0.32936546  0.48683938  0.78927807     1.04500
Fe677      Fe  0.47946828  0.73075483  0.74078968     1.65800
Fe678      Fe  0.45124551  0.66115134  0.70787203     1.73200
Fe679      Fe  0.40165911  0.70167515  0.75571111     1.54400
O680        O  0.42479117  0.71337542  0.79513648    -0.80100
O681        O  0.41053827  0.67448417  0.68390374    -0.78400
O682        O  0.47773728  0.72487372  0.78472058    -0.82600
O683        O  0.44720663  0.77144523  0.74403664    -0.77500
O684        O  0.40187360  0.65291100  0.76873838    -0.79200
O685        O  0.48128113  0.68810382  0.68023952    -0.82000
C686        C  0.41590664  0.77513850  0.74591374     0.98800
C687        C  0.45441764  0.72032315  0.80260853     1.06200
O688        O  0.44392419  0.69814669  0.73478720    -1.11000
O689        O  0.49208910  0.64568392  0.73057491    -0.73400
O690        O  0.51650859  0.69428289  0.73983609    -0.76900
O691        O  0.39585276  0.75106034  0.74623738    -0.77600
C692        C  0.51685091  0.66272063  0.73845852     0.97700
O693        O  0.48540537  0.73963744  0.69700323    -0.75500
O694        O  0.42302516  0.62707005  0.73047863    -0.80700
C695        C  0.38137397  0.68178629  0.69212222     1.00300
C696        C  0.40741975  0.62692589  0.75425560     1.06200
O697        O  0.37416250  0.69004839  0.71816356    -0.76400
C698        C  0.49069165  0.71789092  0.67770984     1.04500
Fe699      Fe  0.26232369  0.51366313  0.53612038     1.65800
Fe700      Fe  0.33198217  0.54181472  0.56902774     1.73200
Fe701      Fe  0.29146437  0.59144342  0.52121214     1.54400
O702        O  0.27976340  0.56834605  0.98177842    -0.80100
O703        O  0.31868413  0.58251746  0.59300885    -0.78400
O704        O  0.26815526  0.51543227  0.99218600    -0.82600
O705        O  0.22164161  0.54594634  0.53294447    -0.77500
O706        O  0.34023716  0.59122444  0.50819110    -0.79200
O707        O  0.30502150  0.51180471  0.59666388    -0.82000
C708        C  0.21797418  0.57724222  0.53106138     0.98800
C709        C  0.27275891  0.53874165  0.97430284     1.06200
O710        O  0.29497189  0.54917239  0.54212257    -1.11000
O711        O  0.34741327  0.50097207  0.54631267    -0.73400
O712        O  0.29878524  0.47661046  0.53701276    -0.76900
O713        O  0.24207429  0.59726845  0.53067863    -0.77600
C714        C  0.33035382  0.47624166  0.53839559     0.97700
O715        O  0.25347486  0.50768863  0.57990509    -0.75500
O716        O  0.36607950  0.57001057  0.54642572    -0.80700
C717        C  0.31136021  0.61167839  0.58480740     1.00300
C718        C  0.36622521  0.58564874  0.52266784     1.06200
O719        O  0.30308875  0.61890520  0.55877161    -0.76400
C720        C  0.27522626  0.50241136  0.59919876     1.04500
Fe721      Fe  0.04391806  0.23135812  0.74088480     1.65800
Fe722      Fe  0.07210081  0.16203707  0.70733464     1.73200
Fe723      Fe  0.12162141  0.20151799  0.75565997     1.54400
O724        O  0.12758436  0.25098695  0.74669321    -0.80100
O725        O  0.10040872  0.12749740  0.72947707    -0.78400
O726        O  0.07629165  0.27179606  0.74456357    -0.82600
O727        O  0.04552002  0.22483562  0.78475524    -0.77500
O728        O  0.14914557  0.19012417  0.71803131    -0.79200
O729        O  0.03131641  0.14646112  0.72994441    -0.82000
C730        C  0.06877062  0.21982042  0.80263941     0.98800
C731        C  0.10761021  0.27523367  0.74646632     1.06200
O732        O  0.07941718  0.19860430  0.73462664    -1.11000
O733        O  0.04195395  0.18945469  0.68006734    -0.73400
O734        O  0.03809099  0.24086695  0.69717411    -0.76900
O735        O  0.09841458  0.21282895  0.79515381    -0.77600
C736        C  0.03261809  0.21932844  0.67776481     0.97700
O737        O  0.00682651  0.19509174  0.73945368    -0.75500
O738        O  0.11276990  0.17557542  0.68348653    -0.80700
C739        C  0.11583932  0.12688000  0.75333163     1.00300
C740        C  0.14196983  0.18233874  0.69187448     1.06200
O741        O  0.12121857  0.15259083  0.76819156    -0.76400
C742        C  0.00649374  0.16353703  0.73782485     1.04500
Fe743      Fe  0.26230687  0.01318273  0.53638092     1.65800
Fe744      Fe  0.19295183  0.04127228  0.56994603     1.73200
Fe745      Fe  0.23236596  0.09083219  0.52161852     1.54400
O746        O  0.28182694  0.09686263  0.53060918    -0.80100
O747        O  0.15837828  0.06957729  0.54783283    -0.78400
O748        O  0.30270411  0.04560204  0.53267106    -0.82600
O749        O  0.25575750  0.01477048  0.99251659    -0.77500
O750        O  0.22091214  0.11832628  0.55924745    -0.79200
O751        O  0.17740993  0.00049860  0.54731616    -0.82000
C752        C  0.25074524  0.03802023  0.97463435     0.98800
C753        C  0.30610152  0.07692042  0.53079327     1.06200
O754        O  0.22950798  0.04863264  0.54264696    -1.11000
O755        O  0.22041026  0.01113971  0.59718823    -0.73400
O756        O  0.27184497  0.00738528  0.58008788    -0.76900
O757        O  0.24374099  0.06765500  0.98212277    -0.77600
C758        C  0.25030842  0.00187006  0.59949514     0.97700
O759        O  0.22607898  0.97605401  0.53783269    -0.75500
O760        O  0.20647422  0.08192544  0.59380677    -0.80700
C761        C  0.15773261  0.08499506  0.52397161     1.00300
C762        C  0.21317326  0.11113408  0.58541310     1.06200
O763        O  0.18343196  0.09035135  0.50907890    -0.76400
C764        C  0.19451612  0.97569719  0.53943825     1.04500
Fe765      Fe  0.04438643  0.73181352  0.99099200     1.65800
Fe766      Fe  0.07259996  0.80143326  0.95808892     1.73200
Fe767      Fe  0.12219205  0.76088155  0.50590367     1.54400
O768        O  0.09906370  0.74915502  0.54532940    -0.80100
O769        O  0.11329672  0.78810853  0.93410177    -0.78400
O770        O  0.04611005  0.73768470  0.53492194    -0.82600
O771        O  0.07664443  0.69112341  0.99423956    -0.77500
O772        O  0.12197448  0.80963636  0.51894740    -0.79200
O773        O  0.04254931  0.77449635  0.93046307    -0.82000
C774        C  0.10794471  0.68742780  0.99609697     0.98800
C775        C  0.06943524  0.74221583  0.55280614     1.06200
O776        O  0.07992714  0.76442377  0.98499144    -1.11000
O777        O  0.03177074  0.81688858  0.98081554    -0.73400
O778        O  0.00734582  0.76828059  0.99003633    -0.76900
O779        O  0.12799981  0.71150473  0.99640910    -0.77600
C780        C  0.00700731  0.79984379  0.98868477     0.97700
O781        O  0.03846922  0.72294677  0.94720615    -0.75500
O782        O  0.10083361  0.83549742  0.98069264    -0.80700
C783        C  0.14246256  0.78079930  0.94231183     1.00300
C784        C  0.11643538  0.83562784  0.50446833     1.06200
O785        O  0.14967974  0.77253214  0.96835199    -0.76400
C786        C  0.03316061  0.74470385  0.92792441     1.04500
Fe787      Fe  0.26159129  0.94884918  0.78628521     1.65800
Fe788      Fe  0.19194752  0.92069087  0.81922161     1.73200
Fe789      Fe  0.23242366  0.87107890  0.77137414     1.54400
O790        O  0.24408607  0.89419992  0.73194004    -0.80100
O791        O  0.20525958  0.87998066  0.84319082    -0.78400
O792        O  0.25573303  0.94710261  0.74235407    -0.82600
O793        O  0.30226822  0.91656449  0.78306415    -0.77500
O794        O  0.18363651  0.87129831  0.75838938    -0.79200
O795        O  0.21892747  0.95069560  0.84684501    -0.82000
C796        C  0.30592955  0.88527055  0.78114699     0.98800
C797        C  0.25110382  0.92380391  0.72446840     1.06200
O798        O  0.22894096  0.91333981  0.79229654    -1.11000
O799        O  0.17650846  0.96153884  0.79651366    -0.73400
O800        O  0.22513417  0.98590549  0.78720666    -0.76900
O801        O  0.28182687  0.86524632  0.78078842    -0.77600
C802        C  0.19356555  0.98627180  0.78859384     0.97700
O803        O  0.27046893  0.95480354  0.83006953    -0.75500
O804        O  0.15782489  0.89249990  0.79664162    -0.80700
C805        C  0.21257003  0.85082074  0.83498112     1.00300
C806        C  0.15765859  0.87686648  0.77288319     1.06200
O807        O  0.22083058  0.84360213  0.80894051    -0.76400
C808        C  0.24872472  0.96008593  0.84937008     1.04500
Fe809      Fe  0.98004551  0.73094131  0.74097200     1.65800
Fe810      Fe  0.95199397  0.80031631  0.70738311     1.73200
Fe811      Fe  0.90235251  0.76090600  0.75567278     1.54400
O812        O  0.89634917  0.71143846  0.74673885    -0.80100
O813        O  0.92373371  0.83490678  0.72950948    -0.78400
O814        O  0.94760894  0.69054934  0.74456202    -0.82600
O815        O  0.97835671  0.73741570  0.78484336    -0.77500
O816        O  0.87488285  0.77230636  0.71800954    -0.79200
O817        O  0.99280046  0.81581363  0.73000928    -0.82000
C818        C  0.95510960  0.74252950  0.80270903     0.98800
C819        C  0.91628593  0.68716203  0.74647171     1.06200
O820        O  0.94459446  0.76375398  0.73467409    -1.11000
O821        O  0.98209267  0.77284925  0.68012293    -0.73400
O822        O  0.98597996  0.72145122  0.69726712    -0.76900
O823        O  0.92549449  0.74960837  0.79520007    -0.77600
C824        C  0.99142811  0.74297547  0.67783674     0.97700
O825        O  0.01718776  0.76715928  0.73963802    -0.75500
O826        O  0.91130884  0.78687179  0.68350750    -0.80700
C827        C  0.90822317  0.83554154  0.75332487     1.00300
C828        C  0.88209248  0.78011956  0.69186369     1.06200
O829        O  0.90277017  0.80983808  0.76817648    -0.76400
C830        C  0.01757098  0.79871122  0.73797533     1.04500
Fe831      Fe  0.76171095  0.94922846  0.53622237     1.65800
Fe832      Fe  0.83108083  0.92115215  0.56979388     1.73200
Fe833      Fe  0.79165518  0.87156101  0.52149046     1.54400
O834        O  0.74217756  0.86555041  0.53043310    -0.80100
O835        O  0.86566190  0.89288793  0.54766975    -0.78400
O836        O  0.72130381  0.91680965  0.53257578    -0.82600
O837        O  0.76821589  0.94758918  0.99235024    -0.77500
O838        O  0.80306964  0.84407842  0.55914959    -0.79200
O839        O  0.84660677  0.96192828  0.54715879    -0.82000
C840        C  0.77328578  0.92434897  0.97447362     0.98800
C841        C  0.71790374  0.88549401  0.53065877     1.06200
O842        O  0.79451244  0.91377536  0.54250448    -1.11000
O843        O  0.80363104  0.95127366  0.59704861    -0.73400
O844        O  0.75220856  0.95511097  0.57993573    -0.76900
O845        O  0.78033610  0.89472672  0.98197184    -0.77600
C846        C  0.77374897  0.96059709  0.59934717     0.97700
O847        O  0.79794490  0.98634949  0.53760376    -0.75500
O848        O  0.81759844  0.88048839  0.59366774    -0.80700
C849        C  0.86630041  0.87744475  0.52382595     1.00300
C850        C  0.81086024  0.85127984  0.58530268     1.06200
O851        O  0.84059274  0.87201029  0.50897169    -0.76400
C852        C  0.82950457  0.98671409  0.53923990     1.04500
Fe853      Fe  0.97957354  0.23074082  0.99103183     1.65800
Fe854      Fe  0.95149836  0.16105097  0.95812901     1.73200
Fe855      Fe  0.90176811  0.20156748  0.50587850     1.54400
O856        O  0.92482854  0.21325780  0.54533661    -0.80100
O857        O  0.91078238  0.17426860  0.93411079    -0.78400
O858        O  0.97774828  0.22492784  0.53496605    -0.82600
O859        O  0.94725468  0.27140498  0.99416360    -0.77500
O860        O  0.90197187  0.15280578  0.51890411    -0.79200
O861        O  0.98149596  0.18802089  0.93049193    -0.82000
C862        C  0.91594932  0.27505973  0.99604216     0.98800
C863        C  0.95442758  0.22028393  0.55283371     1.06200
O864        O  0.94408001  0.19807220  0.98500680    -1.11000
O865        O  0.99235631  0.14567692  0.98087100    -0.73400
O866        O  0.01666622  0.19431405  0.99019881    -0.76900
O867        O  0.89593184  0.25095336  0.99641623    -0.77600
C868        C  0.01706728  0.16275253  0.98881409     0.97700
O869        O  0.98561202  0.23956148  0.94724528    -0.75500
O870        O  0.92332979  0.12694797  0.98073986    -0.80700
C871        C  0.88160591  0.18161404  0.94227097     1.00300
C872        C  0.90762746  0.12681186  0.50446781     1.06200
O873        O  0.87434823  0.18993812  0.96828787    -0.76400
C874        C  0.99089404  0.21780910  0.92795575     1.04500
Fe875      Fe  0.76237678  0.01363050  0.78612884     1.65800
Fe876      Fe  0.83206676  0.04172568  0.81904169     1.73200
Fe877      Fe  0.79154817  0.09141751  0.77126289     1.54400
O878        O  0.77986467  0.06833711  0.73180801    -0.80100
O879        O  0.81885041  0.08244797  0.84303720    -0.78400
O880        O  0.76821897  0.01542552  0.74219400    -0.82600
O881        O  0.72170407  0.04593469  0.78295162    -0.77500
O882        O  0.84032339  0.09120997  0.75824656    -0.79200
O883        O  0.80507532  0.01175161  0.84668749    -0.82000
C884        C  0.71804334  0.07723217  0.78106468     0.98800
C885        C  0.77285500  0.03873618  0.72431771     1.06200
O886        O  0.79504466  0.04912577  0.79215158    -1.11000
O887        O  0.84744786  0.00086355  0.79632768    -0.73400
O888        O  0.79880729  0.97654582  0.78700531    -0.76900
O889        O  0.74215001  0.09725184  0.78071303    -0.77600
C890        C  0.83037393  0.97614893  0.78840081     0.97700
O891        O  0.75353094  0.00762029  0.82991694    -0.75500
O892        O  0.86618874  0.06986391  0.79641418    -0.80700
C893        C  0.81150669  0.11161426  0.83486399     1.00300
C894        C  0.86632564  0.08554337  0.77267706     1.06200
O895        O  0.80317462  0.11885594  0.80884435    -0.76400
C896        C  0.77528232  0.00234468  0.84921478     1.04500
C897        C  0.85575227  0.17824365  0.92087683    -0.16900
C898        C  0.83837646  0.16997480  0.90075436     0.07100
C899        C  0.82319719  0.15483111  0.87636816     0.09000
C900        C  0.81489699  0.13747185  0.85624667    -0.17800
C901        C  0.89414273  0.09604441  0.51455787    -0.16900
C902        C  0.88025609  0.07069916  0.52107957     0.07100
C903        C  0.86230945  0.04156601  0.52730071     0.09000
C904        C  0.84680783  0.01673390  0.53239798    -0.17800
C905        C  0.76706803  0.98323135  0.87446898    -0.16900
C906        C  0.76551304  0.96566304  0.89560154     0.07100
C907        C  0.76760034  0.94617238  0.92102290     0.09000
C908        C  0.77055494  0.93296413  0.94435974    -0.17800
C909        C  0.76962409  0.03022771  0.69421847    -0.16900
C910        C  0.76625900  0.01705581  0.67091352     0.07100
C911        C  0.76379624  0.99753828  0.64553735     0.09000
C912        C  0.76524485  0.97987295  0.62445571    -0.17800
C913        C  0.85613056  0.78374289  0.67058056    -0.16900
C914        C  0.83856583  0.79231245  0.65064823     0.07100
C915        C  0.82306724  0.80777951  0.62652780     0.09000
C916        C  0.81448167  0.82532161  0.60658650    -0.17800
C917        C  0.84771380  0.94616325  0.78123008    -0.16900
C918        C  0.86315120  0.92128512  0.77587576     0.07100
C919        C  0.88097544  0.89202760  0.76950984     0.09000
C920        C  0.89477528  0.86653775  0.76307220    -0.17800
C921        C  0.04759283  0.81600780  0.74485671    -0.16900
C922        C  0.07241931  0.83150873  0.74999980     0.07100
C923        C  0.10154223  0.84946381  0.75627225     0.09000
C924        C  0.12688040  0.86336299  0.76281376    -0.17800
C925        C  0.89731292  0.86407237  0.51404131    -0.16900
C926        C  0.92283904  0.85035570  0.50757905     0.07100
C927        C  0.95213659  0.83261110  0.50119624     0.09000
C928        C  0.97703199  0.81720522  0.99583849    -0.17800
C929        C  0.16834950  0.78415327  0.92095003    -0.16900
C930        C  0.18574473  0.79241672  0.90083944     0.07100
C931        C  0.20092822  0.80756594  0.87645974     0.09000
C932        C  0.20921450  0.82494154  0.85634519    -0.17800
C933        C  0.01066723  0.73445755  0.65271123    -0.16900
C934        C  0.02829748  0.73301087  0.63160575     0.07100
C935        C  0.04777410  0.73550931  0.60620779     0.09000
C936        C  0.06092181  0.73892514  0.58289756    -0.17800
C937        C  0.96371150  0.73983576  0.83282481    -0.16900
C938        C  0.97692440  0.73693051  0.85616223     0.07100
C939        C  0.99643593  0.73490248  0.88157169     0.09000
C940        C  0.01402615  0.73649167  0.90268641    -0.17800
C941        C  0.17721753  0.94567453  0.53259153    -0.16900
C942        C  0.16173287  0.92084287  0.52745035     0.07100
C943        C  0.14380686  0.89171620  0.52115504     0.09000
C944        C  0.12992961  0.86638281  0.51458096    -0.17800
C945        C  0.12673123  0.09843977  0.51421614    -0.16900
C946        C  0.10122609  0.11221721  0.50777307     0.07100
C947        C  0.07194609  0.13000731  0.50139276     0.09000
C948        C  0.04705597  0.14542331  0.99601623    -0.17800
C949        C  0.25695413  0.97918393  0.87462349    -0.16900
C950        C  0.25852420  0.99673703  0.89576044     0.07100
C951        C  0.25644696  0.01620980  0.92118714     0.09000
C952        C  0.25349085  0.02940623  0.94452532    -0.17800
C953        C  0.25436962  0.93231970  0.69437916    -0.16900
C954        C  0.25778100  0.94547332  0.67107412     0.07100
C955        C  0.26028428  0.96496789  0.64569302     0.09000
C956        C  0.25883771  0.98261845  0.62460480    -0.17800
C957        C  0.89710984  0.09897882  0.76255770    -0.16900
C958        C  0.92247269  0.11281865  0.75599677     0.07100
C959        C  0.95162722  0.13072392  0.74973929     0.09000
C960        C  0.97647069  0.14621296  0.74463775    -0.17800
C961        C  0.06015184  0.22254973  0.83274887    -0.16900
C962        C  0.04697367  0.22549833  0.85609736     0.07100
C963        C  0.02752849  0.22757962  0.88154290     0.09000
C964        C  0.00999096  0.22602157  0.90269406    -0.17800
C965        C  0.01333260  0.22782910  0.65266248    -0.16900
C966        C  0.99564600  0.22930156  0.63159559     0.07100
C967        C  0.97610370  0.22686856  0.60623352     0.09000
C968        C  0.96292404  0.22351663  0.58293168    -0.17800
C969        C  0.20957115  0.13710650  0.60667382    -0.16900
C970        C  0.20101168  0.15468324  0.62659327     0.07100
C971        C  0.18552886  0.17018251  0.65069620     0.09000
C972        C  0.16795489  0.17875182  0.67061700    -0.17800
C973        C  0.17620873  0.01624260  0.78141245    -0.16900
C974        C  0.16078930  0.04112190  0.77602593     0.07100
C975        C  0.14301400  0.07039261  0.76960860     0.09000
C976        C  0.12926086  0.09589199  0.76312545    -0.17800
C977        C  0.18538919  0.59132252  0.52666725    -0.16900
C978        C  0.16177038  0.60773166  0.51893769     0.07100
C979        C  0.13835057  0.63120095  0.50829793     0.09000
C980        C  0.12198992  0.65484075  0.50054333    -0.17800
C981        C  0.33850408  0.87119450  0.77667458    -0.16900
C982        C  0.36210390  0.85479948  0.76887591     0.07100
C983        C  0.38550550  0.83134987  0.75817047     0.09000
C984        C  0.40186037  0.80772189  0.75037908    -0.17800
C985        C  0.35548301  0.67841938  0.67076916    -0.16900
C986        C  0.33810205  0.67012711  0.65066127     0.07100
C987        C  0.32295415  0.65494231  0.62628563     0.09000
C988        C  0.31469962  0.63755104  0.60617492    -0.17800
C989        C  0.12179768  0.30771147  0.75090817    -0.16900
C990        C  0.13827980  0.33130458  0.75840794     0.07100
C991        C  0.16176898  0.35483976  0.76866007     0.09000
C992        C  0.18532968  0.37136377  0.77617337    -0.17800
C993        C  0.34666157  0.51686313  0.78241613    -0.16900
C994        C  0.36214334  0.54169492  0.77725932     0.07100
C995        C  0.38006369  0.57082434  0.77094780     0.09000
C996        C  0.39393371  0.59616205  0.76436646    -0.17800
C997        C  0.27043928  0.43312563  0.69437784    -0.16900
C998        C  0.26749626  0.44631335  0.67103441     0.07100
C999        C  0.26542985  0.46577381  0.64560004     0.09000
C1000       C  0.26700409  0.48331893  0.62445739    -0.17800
C1001       C  0.26505351  0.47990642  0.87445735    -0.16900
C1002       C  0.26359797  0.49756550  0.89553827     0.07100
C1003       C  0.26608429  0.51707395  0.92091102     0.09000
C1004       C  0.26948636  0.53023463  0.94421270    -0.17800
C1005       C  0.40203806  0.15475000  0.50087897    -0.16900
C1006       C  0.38558190  0.13116651  0.50844363     0.07100
C1007       C  0.36211532  0.10765050  0.51876486     0.09000
C1008       C  0.33855903  0.09114398  0.52631531    -0.17800
C1009       C  0.35587050  0.28369214  0.92047196    -0.16900
C1010       C  0.33831393  0.29227468  0.90054310     0.07100
C1011       C  0.32285593  0.30779990  0.87643859     0.09000
C1012       C  0.31431326  0.32539668  0.85652444    -0.17800
C1013       C  0.39459686  0.36657792  0.51296793    -0.16900
C1014       C  0.38086651  0.39209165  0.51944126     0.07100
C1015       C  0.36311431  0.42137963  0.52584253     0.09000
C1016       C  0.34770683  0.44626875  0.53121765    -0.17800
C1017       C  0.90184653  0.30763450  0.50044239    -0.16900
C1018       C  0.88543401  0.33125483  0.50816788     0.07100
C1019       C  0.86197540  0.35470643  0.51878723     0.09000
C1020       C  0.83834727  0.37111220  0.52651243    -0.17800
C1021       C  0.54734724  0.31620696  0.99447048    -0.16900
C1022       C  0.57219274  0.33169064  0.49956032     0.07100
C1023       C  0.60134635  0.34959449  0.50579950     0.09000
C1024       C  0.62670650  0.36343780  0.51234887    -0.17800
C1025       C  0.62199398  0.15474644  0.75040151    -0.16900
C1026       C  0.63839835  0.13113893  0.75817132     0.07100
C1027       C  0.66184501  0.10770945  0.76884813     0.09000
C1028       C  0.68546366  0.09131952  0.77662020    -0.17800
C1029       C  0.47678775  0.31695176  0.74588137    -0.16900
C1030       C  0.45191536  0.33239619  0.75126327     0.07100
C1031       C  0.42266395  0.35023642  0.75764790     0.09000
C1032       C  0.39717759  0.36405315  0.76408915    -0.17800
C1033       C  0.56090994  0.23894220  0.83280810    -0.16900
C1034       C  0.54771605  0.23559616  0.85610478     0.07100
C1035       C  0.52815892  0.23315015  0.88145731     0.09000
C1036       C  0.51046489  0.23460908  0.90251995    -0.17800
C1037       C  0.51386880  0.23633378  0.65255377    -0.16900
C1038       C  0.49633029  0.23479660  0.63140094     0.07100
C1039       C  0.47687807  0.23691153  0.60595870     0.09000
C1040       C  0.46368953  0.23988709  0.58261544    -0.17800
C1041       C  0.66811434  0.28414923  0.67073781    -0.16900
C1042       C  0.68546726  0.29244518  0.65060526     0.07100
C1043       C  0.70060979  0.30760991  0.62620628     0.09000
C1044       C  0.70888771  0.32497223  0.60607542    -0.17800
C1045       C  0.90204785  0.65470296  0.75087802    -0.16900
C1046       C  0.88552470  0.63113146  0.75835901     0.07100
C1047       C  0.86199328  0.60762942  0.76859192     0.09000
C1048       C  0.83840268  0.59113411  0.77607961    -0.17800
C1049       C  0.62970175  0.36636487  0.76437325    -0.16900
C1050       C  0.64358429  0.39171233  0.77089470     0.07100
C1051       C  0.66152178  0.42085116  0.77711855     0.09000
C1052       C  0.67701335  0.44569028  0.78221351    -0.17800
C1053       C  0.62651062  0.59841118  0.76381555    -0.16900
C1054       C  0.60099737  0.61215043  0.75734380     0.07100
C1055       C  0.57171426  0.62992259  0.75095474     0.09000
C1056       C  0.54682728  0.64534838  0.74560157    -0.17800
C1057       C  0.75666045  0.47924061  0.62425595    -0.16900
C1058       C  0.75822317  0.49680405  0.64538913     0.07100
C1059       C  0.75616710  0.51628136  0.67081813     0.09000
C1060       C  0.75324521  0.52947882  0.69416132    -0.17800
C1061       C  0.75852864  0.48257273  0.87427574    -0.16900
C1062       C  0.75998421  0.46489612  0.89535076     0.07100
C1063       C  0.75753616  0.44535933  0.92071739     0.09000
C1064       C  0.75418317  0.43217562  0.94401925    -0.17800
C1065       C  0.62185503  0.80775249  0.50076924    -0.16900
C1066       C  0.63836447  0.83130404  0.50832216     0.07100
C1067       C  0.66186984  0.85478757  0.51863592     0.09000
C1068       C  0.68543987  0.87127704  0.52618421    -0.17800
C1069       C  0.47627298  0.64651224  0.99463418    -0.16900
C1070       C  0.45144883  0.63101006  0.49977771     0.07100
C1071       C  0.42232910  0.61305292  0.50604306     0.09000
C1072       C  0.39699322  0.59915207  0.51258309    -0.17800
C1073       C  0.50982628  0.72610444  0.65246676    -0.16900
C1074       C  0.52741648  0.72767720  0.63134778     0.07100
C1075       C  0.54693023  0.72561625  0.60593751     0.09000
C1076       C  0.56014672  0.72267778  0.58260263    -0.17800
C1077       C  0.51321070  0.72807787  0.90249707    -0.16900
C1078       C  0.49557501  0.72952181  0.88139582     0.07100
C1079       C  0.47609018  0.72701741  0.85600485     0.09000
C1080       C  0.46293590  0.72360249  0.83269864    -0.17800
C1081       C  0.66771302  0.67874903  0.92034026    -0.16900
C1082       C  0.68527236  0.67018116  0.90040441     0.07100
C1083       C  0.70076444  0.65470096  0.87628946     0.09000
C1084       C  0.70934345  0.63714246  0.85635945    -0.17800
C1085       C  0.62903576  0.59591621  0.51283040    -0.16900
C1086       C  0.64281789  0.57040957  0.51925051     0.07100
C1087       C  0.66062890  0.54113715  0.52559851     0.09000
C1088       C  0.67606377  0.51625587  0.53095254    -0.17800
loop_ 
_geom_bond_atom_site_label_1 
_geom_bond_atom_site_label_2 
_geom_bond_distance 
_geom_bond_site_symmetry_2 
_ccdc_geom_bond_type 
Fe1          O12   1.967       .  S
Fe1          O14   2.065       .  S
Fe1           O6   2.098       .  S
Fe1         O561   2.096       .  S
Fe1         O551   2.041       .  S
Fe2          O12   1.962       .  S
Fe2           O5   2.068       .  S
Fe2           O9   2.047       .  S
Fe2          O13   2.067       .  S
Fe2          O18   2.050       .  S
Fe3         O556   1.963   1_554  S
Fe3          O21   2.056       .  S
Fe3          O15   2.097       .  S
Fe3           O4   2.052   1_554  S
Fe3         O552   2.110   1_554  S
O4          C555   1.265       .  A
O5          C563   1.264       .  A
O6           C11   1.274       .  A
O7         Fe545   2.041   1_554  S
O7           C10   1.264       .  A
O8         Fe547   2.110       .  S
O8           C20   1.280       .  A
O9           C22   1.267       .  A
C10          O15   1.275       .  A
C10         C532   1.435       .  S
C11         O548   1.265       .  A
C11        C1065   1.445       .  S
O12        Fe547   1.963       .  S
O13          C16   1.266       .  A
O14          C16   1.267       .  A
C16         C533   1.435       .  S
O17        Fe545   2.096       .  S
O17         C566   1.275       .  A
O18          C20   1.270       .  A
C19          O21   1.262       .  A
C19         O549   1.264   1_554  A
C19         C541   1.434       .  S
C20         C537   1.442       .  S
C22         O561   1.275       .  A
C22         C525   1.434       .  S
Fe23         O34   1.967       .  S
Fe23         O39   2.095       .  S
Fe23         O29   2.041       .  S
Fe23         O36   2.065       .  S
Fe23         O28   2.098       .  S
Fe24         O34   1.962       .  S
Fe24         O27   2.068       .  S
Fe24         O31   2.047       .  S
Fe24         O35   2.067       .  S
Fe24         O40   2.050       .  S
Fe25         O34   1.963       .  S
Fe25         O43   2.056       .  S
Fe25         O30   2.110       .  S
Fe25         O37   2.097       .  S
Fe25         O26   2.052       .  S
O26          C33   1.265       .  A
O27          C41   1.264       .  A
O28          C33   1.274       .  A
O29          C32   1.265       .  A
O30          C42   1.280       .  A
O31          C44   1.267       .  A
C32          O37   1.275       .  A
C32         C516   1.435       .  S
C33         C504   1.445       .  S
O35          C38   1.266       .  A
O36          C38   1.267       .  A
C38         C517   1.436       .  S
O39          C44   1.275       .  A
O40          C42   1.270       .  A
C41          O43   1.262       .  A
C41         C509   1.434       .  S
C42         C540   1.442       .  S
C44         C508   1.434       .  S
Fe45         O56   1.968       .  S
Fe45         O61   2.065       .  S
Fe45         O51   2.097       .  S
Fe45         O58   2.094       .  S
Fe45         O50   2.041       .  S
Fe46         O56   1.963       .  S
Fe46         O49   2.050       .  S
Fe46         O53   2.068       .  S
Fe46         O57   2.048       .  S
Fe46         O62   2.068       .  S
Fe47         O56   1.964       .  S
Fe47         O65   2.109       .  S
Fe47         O52   2.056       .  S
Fe47         O59   2.052       .  S
Fe47         O48   2.097       .  S
O48          C55   1.275       .  A
O49          C63   1.270       .  A
O50          C55   1.264       .  A
O51          C54   1.274       .  A
O52          C64   1.262       .  A
O53          C66   1.266       .  A
C54          O59   1.265       .  A
C54         C481   1.445       .  S
C55         C489   1.435       .  S
O57          C60   1.267       .  A
O58          C60   1.275       .  A
C60         C485   1.434       .  S
O61          C66   1.267       .  A
O62          C64   1.264       .  A
C63          O65   1.279       .  A
C63         C497   1.442       .  S
C64         C505   1.434       .  S
C66         C493   1.436       .  S
Fe67         O78   1.968       .  S
Fe67         O83   2.065       .  S
Fe67         O73   2.097       .  S
Fe67         O80   2.094       .  S
Fe67        O616   2.041   1_554  S
Fe68         O78   1.963       .  S
Fe68         O71   2.050       .  S
Fe68         O75   2.068       .  S
Fe68         O79   2.048       .  S
Fe68         O84   2.068       .  S
Fe69         O78   1.964       .  S
Fe69         O87   2.110       .  S
Fe69         O74   2.056       .  S
Fe69         O81   2.052       .  S
Fe69        O614   2.098   1_554  S
O70        Fe613   2.098       .  S
O70          C77   1.275       .  A
O71          C85   1.270       .  A
O72        Fe611   2.041       .  S
O72          C77   1.264       .  A
O73          C76   1.274       .  A
O74          C86   1.262       .  A
O75          C88   1.266       .  A
C76          O81   1.265       .  A
C76         C476   1.445       .  S
C77         C520   1.436       .  S
O79          C82   1.267       .  A
O80          C82   1.275       .  A
C82         C544   1.434       .  S
O83          C88   1.267       .  A
O84          C86   1.264       .  A
C85          O87   1.279       .  A
C85         C500   1.442       .  S
C86         C480   1.433       .  S
C88         C513   1.436       .  S
Fe89        O100   1.967       .  S
Fe89        O102   2.065       .  S
Fe89         O94   2.098       .  S
Fe89        O649   2.095       .  S
Fe89        O639   2.041       .  S
Fe90        O100   1.962       .  S
Fe90         O93   2.068       .  S
Fe90         O97   2.047       .  S
Fe90        O101   2.067       .  S
Fe90        O106   2.049       .  S
Fe91        O644   1.963   1_554  S
Fe91        O109   2.056       .  S
Fe91        O103   2.097       .  S
Fe91         O92   2.052   1_554  S
Fe91        O640   2.110   1_554  S
O92         C643   1.265       .  A
O93         C651   1.264       .  A
O94          C99   1.274       .  A
O95        Fe633   2.041   1_554  S
O95          C98   1.265       .  A
O96        Fe635   2.110       .  S
O96         C108   1.280       .  A
O97         C110   1.267       .  A
C98         O103   1.275       .  A
C98         C496   1.435       .  S
C99         O636   1.265       .  A
C99        C1005   1.445       .  S
O100       Fe635   1.963       .  S
O101        C104   1.266       .  A
O102        C104   1.267       .  A
C104        C492   1.435       .  S
O105       Fe633   2.095       .  S
O105        C654   1.275       .  A
O106        C108   1.270       .  A
C107        O109   1.262       .  A
C107        O637   1.264   1_554  A
C107        C469   1.434       .  S
C108        C465   1.442       .  S
C110        O649   1.275       .  A
C110        C477   1.434       .  S
Fe111       O122   1.967       .  S
Fe111       O127   2.096       .  S
Fe111       O117   2.041       .  S
Fe111       O124   2.065       .  S
Fe111       O116   2.098       .  S
Fe112       O122   1.962       .  S
Fe112       O115   2.069       .  S
Fe112       O119   2.047       .  S
Fe112       O123   2.067       .  S
Fe112       O128   2.050       .  S
Fe113       O122   1.962       .  S
Fe113       O131   2.056       .  S
Fe113       O118   2.110       .  S
Fe113       O125   2.097       .  S
Fe113       O114   2.052       .  S
O114        C121   1.265       .  A
O115        C129   1.264       .  A
O116        C121   1.274       .  A
O117        C120   1.264       .  A
O118        C130   1.280       .  A
O119        C132   1.267       .  A
C120        O125   1.275       .  A
C120        C453   1.435       .  S
C121        C448   1.445       .  S
O123        C126   1.266       .  A
O124        C126   1.267       .  A
C126        C457   1.435       .  S
O127        C132   1.275       .  A
O128        C130   1.270       .  A
C129        O131   1.262       .  A
C129        C488   1.434       .  S
C130        C468   1.442       .  S
C132        C449   1.434       .  S
Fe133       O144   1.967       .  S
Fe133       O149   2.064       .  S
Fe133       O139   2.097       .  S
Fe133       O146   2.094       .  S
Fe133       O138   2.041       .  S
Fe134       O144   1.963       .  S
Fe134       O137   2.050       .  S
Fe134       O141   2.068       .  S
Fe134       O145   2.048       .  S
Fe134       O150   2.068       .  S
Fe135       O144   1.963       .  S
Fe135       O153   2.109       .  S
Fe135       O140   2.056       .  S
Fe135       O147   2.052       .  S
Fe135       O136   2.098       .  S
O136        C143   1.275       .  A
O137        C151   1.270       .  A
O138        C143   1.264       .  A
O139        C142   1.273       .  A
O140        C152   1.262       .  A
O141        C154   1.266       .  A
C142        O147   1.265       .  A
C142        C440   1.445       .  S
C143        C536   1.435       .  S
O145        C148   1.267       .  A
O146        C148   1.275       .  A
C148        C512   1.434       .  S
O149        C154   1.267       .  A
O150        C152   1.264       .  A
C151        O153   1.279       .  A
C151        C441   1.442       .  S
C152        C452   1.434       .  S
C154        C529   1.436       .  S
Fe155       O166   1.967       .  S
Fe155       O171   2.064       .  S
Fe155       O161   2.097       .  S
Fe155       O168   2.094       .  S
Fe155       O704   2.041   1_554  S
Fe156       O166   1.963       .  S
Fe156       O159   2.050       .  S
Fe156       O163   2.068       .  S
Fe156       O167   2.048       .  S
Fe156       O172   2.068       .  S
Fe157       O166   1.963       .  S
Fe157       O175   2.109       .  S
Fe157       O162   2.056       .  S
Fe157       O169   2.052       .  S
Fe157       O702   2.097   1_554  S
O158       Fe701   2.097       .  S
O158        C165   1.275       .  A
O159        C173   1.270       .  A
O160       Fe699   2.041       .  S
O160        C165   1.264       .  A
O161        C164   1.273       .  A
O162        C174   1.262       .  A
O163        C176   1.266       .  A
C164        O169   1.265       .  A
C164        C433   1.444       .  S
C165        C460   1.435       .  S
O167        C170   1.267       .  A
O168        C170   1.275       .  A
C170        C472   1.434       .  S
O171        C176   1.267       .  A
O172        C174   1.264       .  A
C173        O175   1.279       .  A
C173        C444   1.442       .  S
C174        C528   1.434       .  S
C176        C456   1.435       .  S
Fe177       O188   1.967       .  S
Fe177       O193   2.096       .  S
Fe177       O183   2.041       .  S
Fe177       O190   2.065       .  S
Fe177       O182   2.098       .  S
Fe178       O188   1.962       .  S
Fe178       O181   2.068       .  S
Fe178       O185   2.047       .  S
Fe178       O189   2.068       .  S
Fe178       O194   2.050       .  S
Fe179       O188   1.963       .  S
Fe179       O197   2.056       .  S
Fe179       O184   2.110       .  S
Fe179       O191   2.097       .  S
Fe179       O180   2.052       .  S
O180        C187   1.265       .  A
O181        C195   1.264       .  A
O182        C187   1.274       .  A
O183        C186   1.265       .  A
O184        C196   1.280       .  A
O185        C198   1.267       .  A
C186        O191   1.275       .  A
C186        C417   1.435       .  S
C187        C445   1.445       .  S
O189        C192   1.266       .  A
O190        C192   1.267       .  A
C192        C421   1.435       .  S
O193        C198   1.275       .  A
O194        C196   1.270       .  A
C195        O197   1.262       .  A
C195        C432   1.434       .  S
C196        C428   1.442       .  S
C198        C416   1.434   1_455  S
Fe199       O210   1.967       .  S
Fe199       O215   2.096   1_545  S
Fe199       O212   2.065       .  S
Fe199       O204   2.098       .  S
Fe199       O749   2.041   1_554  S
Fe200       O210   1.961       .  S
Fe200       O203   2.068       .  S
Fe200       O207   2.047       .  S
Fe200       O211   2.067       .  S
Fe200       O216   2.050       .  S
Fe201       O210   1.962       .  S
Fe201       O219   2.056       .  S
Fe201       O206   2.110       .  S
Fe201       O202   2.052       .  S
Fe201       O757   2.097   1_554  S
O202        C209   1.265       .  A
O203        C217   1.264       .  A
O204        C209   1.274       .  A
O205       Fe743   2.041       .  S
O205        C208   1.264       .  A
O206        C218   1.280       .  A
O207        C220   1.267   1_545  A
C208        O213   1.275       .  A
C208        C408   1.435       .  S
C209        C464   1.445       .  S
O211        C214   1.266       .  A
O212        C214   1.267       .  A
O213       Fe745   2.097       .  S
C214        C412   1.435   1_545  S
O215        C220   1.275       .  A
O216        C218   1.270       .  A
C217        O219   1.262       .  A
C217        C401   1.434       .  S
C218        C425   1.442       .  S
C220        C397   1.434       .  S
Fe221       O232   1.967       .  S
Fe221       O237   2.064       .  S
Fe221       O227   2.097       .  S
Fe221       O234   2.094       .  S
Fe221       O770   2.041       .  S
Fe222       O232   1.963       .  S
Fe222       O225   2.050       .  S
Fe222       O229   2.068       .  S
Fe222       O233   2.047       .  S
Fe222       O238   2.068       .  S
Fe223       O776   1.963   1_554  S
Fe223       O228   2.056       .  S
Fe223       O224   2.098       .  S
Fe223       O785   2.109   1_554  S
Fe223       O779   2.052   1_554  S
O224        C231   1.275       .  A
O225        C239   1.270       .  A
O226       Fe765   2.041   1_554  S
O226        C231   1.264       .  A
O227        C230   1.273       .  A
O228        C240   1.262       .  A
O229        C242   1.266       .  A
C230        O235   1.265       .  A
C230        C980   1.444       .  S
C231        C392   1.435       .  S
O232       Fe767   1.963       .  S
O233        C236   1.267       .  A
O234        C236   1.275       .  A
O235       Fe767   2.052       .  S
C236        C384   1.434   1_455  S
O237        C242   1.267       .  A
O238        C784   1.264       .  A
C239        O241   1.279       .  A
C239        C385   1.442       .  S
C240        O782   1.264   1_554  A
C240        C400   1.434       .  S
O241       Fe767   2.109       .  S
C242        C396   1.435       .  S
Fe243       O254   1.967       .  S
Fe243       O259   2.064       .  S
Fe243       O249   2.097       .  S
Fe243       O256   2.094       .  S
Fe243       O248   2.041       .  S
Fe244       O254   1.963       .  S
Fe244       O247   2.050       .  S
Fe244       O251   2.068       .  S
Fe244       O255   2.048       .  S
Fe244       O260   2.068       .  S
Fe245       O254   1.963       .  S
Fe245       O263   2.109       .  S
Fe245       O250   2.056       .  S
Fe245       O257   2.052       .  S
Fe245       O246   2.097       .  S
O246        C253   1.275       .  A
O247        C261   1.270       .  A
O248        C253   1.264       .  A
O249        C252   1.273       .  A
O250        C262   1.262       .  A
O251        C264   1.266       .  A
C252        O257   1.265       .  A
C252        C437   1.444       .  S
C253        C409   1.435       .  S
O255        C258   1.267       .  A
O256        C258   1.275       .  A
C258        C429   1.434   1_565  S
O259        C264   1.267       .  A
O260        C262   1.264       .  A
C261        O263   1.279       .  A
C261        C388   1.442       .  S
C262        C380   1.434       .  S
C264        C405   1.435       .  S
Fe265       O276   1.967       .  S
Fe265       O281   2.096   1_655  S
Fe265       O271   2.041       .  S
Fe265       O278   2.065       .  S
Fe265       O270   2.098       .  S
Fe266       O276   1.962       .  S
Fe266       O269   2.068       .  S
Fe266       O273   2.047       .  S
Fe266       O277   2.067       .  S
Fe266       O282   2.050       .  S
Fe267       O276   1.963       .  S
Fe267       O285   2.056       .  S
Fe267       O272   2.110       .  S
Fe267       O279   2.097       .  S
Fe267       O268   2.052       .  S
O268        C275   1.265       .  A
O269        C283   1.264       .  A
O270        C275   1.274       .  A
O271        C274   1.264       .  A
O272        C284   1.280       .  A
O273        C286   1.267   1_655  A
C274        O279   1.275       .  A
C274        C393   1.435       .  S
C275        C501   1.445       .  S
O277        C280   1.266       .  A
O278        C280   1.267       .  A
C280        C389   1.436   1_655  S
O281        C286   1.275       .  A
O282        C284   1.270       .  A
C283        O285   1.262       .  A
C283        C376   1.434       .  S
C284        C369   1.442       .  S
C286        C377   1.434       .  S
Fe287       O298   1.967       .  S
Fe287       O303   2.095       .  S
Fe287       O300   2.065       .  S
Fe287       O292   2.098       .  S
Fe287       O837   2.041   1_554  S
Fe288       O298   1.962       .  S
Fe288       O291   2.068       .  S
Fe288       O295   2.047       .  S
Fe288       O299   2.067       .  S
Fe288       O304   2.050       .  S
Fe289       O298   1.963       .  S
Fe289       O307   2.056       .  S
Fe289       O294   2.110       .  S
Fe289       O290   2.052       .  S
Fe289       O845   2.097   1_554  S
O290        C297   1.265       .  A
O291        C305   1.264       .  A
O292        C297   1.274       .  A
O293       Fe831   2.041       .  S
O293        C296   1.264       .  A
O294        C306   1.280       .  A
O295        C308   1.267       .  A
C296        O301   1.275       .  A
C296        C364   1.435       .  S
C297        C524   1.445       .  S
O299        C302   1.266       .  A
O300        C302   1.267       .  A
O301       Fe833   2.097       .  S
C302        C368   1.436       .  S
O303        C308   1.275       .  A
O304        C306   1.270       .  A
C305        O307   1.262       .  A
C305        C381   1.434       .  S
C306        C372   1.442       .  S
C308        C360   1.434   1_565  S
Fe309       O320   1.967       .  S
Fe309       O325   2.064       .  S
Fe309       O315   2.097       .  S
Fe309       O322   2.094   1_655  S
Fe309       O858   2.041       .  S
Fe310       O320   1.963       .  S
Fe310       O313   2.050       .  S
Fe310       O317   2.068       .  S
Fe310       O321   2.048       .  S
Fe310       O326   2.068       .  S
Fe311       O864   1.964   1_554  S
Fe311       O316   2.056       .  S
Fe311       O312   2.097       .  S
Fe311       O873   2.109   1_554  S
Fe311       O867   2.052   1_554  S
O312        C319   1.275       .  A
O313        C327   1.270       .  A
O314       Fe853   2.041   1_554  S
O314        C319   1.264       .  A
O315        C318   1.274       .  A
O316        C328   1.262       .  A
O317        C330   1.266       .  A
C318        O323   1.265       .  A
C318       C1017   1.445       .  S
C319        C424   1.435       .  S
O320       Fe855   1.964       .  S
O321        C324   1.267   1_655  A
O322        C324   1.275       .  A
O323       Fe855   2.052       .  S
C324        C404   1.434       .  S
O325        C330   1.267       .  A
O326        C872   1.264       .  A
C327        O329   1.279       .  A
C327        C353   1.442       .  S
C328        O870   1.264   1_554  A
C328        C357   1.434       .  S
O329       Fe855   2.109       .  S
C330        C420   1.435   1_655  S
Fe331       O342   1.968       .  S
Fe331       O347   2.065       .  S
Fe331       O337   2.097       .  S
Fe331       O344   2.094   1_545  S
Fe331       O336   2.041       .  S
Fe332       O342   1.963       .  S
Fe332       O335   2.050       .  S
Fe332       O339   2.068       .  S
Fe332       O343   2.048       .  S
Fe332       O348   2.068       .  S
Fe333       O342   1.964       .  S
Fe333       O351   2.110       .  S
Fe333       O338   2.056       .  S
Fe333       O345   2.052       .  S
Fe333       O334   2.098       .  S
O334        C341   1.275       .  A
O335        C349   1.270       .  A
O336        C341   1.265       .  A
O337        C340   1.274       .  A
O338        C350   1.262       .  A
O339        C352   1.266       .  A
C340        O345   1.265       .  A
C340        C484   1.445       .  S
C341        C365   1.436       .  S
O343        C346   1.267   1_545  A
O344        C346   1.275       .  A
C346        C373   1.434       .  S
O347        C352   1.267       .  A
O348        C350   1.264       .  A
C349        O351   1.279       .  A
C349        C356   1.442       .  S
C350        C413   1.434       .  S
C352        C361   1.436   1_545  S
C353        C354   1.210       .  T
C354        C355   1.419       .  S
C355        C356   1.210       .  T
C357        C358   1.205       .  T
C358        C359   1.411       .  S
C359        C360   1.205       .  T
C361        C362   1.206       .  T
C362        C363   1.414       .  S
C363        C364   1.206       .  T
C365        C366   1.207       .  T
C366        C367   1.414   1_545  S
C367        C368   1.207       .  T
C369        C370   1.210       .  T
C370        C371   1.419       .  S
C371        C372   1.210       .  T
C373        C374   1.205       .  T
C374        C375   1.411       .  S
C375        C376   1.205       .  T
C377        C378   1.205       .  T
C378        C379   1.411       .  S
C379        C380   1.205       .  T
C381        C382   1.205       .  T
C382        C383   1.411       .  S
C383        C928   1.205   1_554  T
C384        C927   1.205       .  T
C385        C386   1.210       .  T
C386        C387   1.419       .  S
C387        C388   1.210       .  T
C389        C390   1.206       .  T
C390        C391   1.414       .  S
C391        C392   1.206       .  T
C393        C394   1.206       .  T
C394        C395   1.414       .  S
C395        C396   1.206   1_655  T
C397        C398   1.205       .  T
C398        C399   1.411       .  S
C399        C400   1.205       .  T
C401        C402   1.205       .  T
C402        C403   1.411       .  S
C403        C948   1.205   1_554  T
C404        C947   1.205       .  T
C405        C406   1.206       .  T
C406        C407   1.414   1_565  S
C407        C408   1.206       .  T
C409        C410   1.206       .  T
C410        C411   1.414       .  S
C411        C412   1.206       .  T
C413        C414   1.205       .  T
C414        C415   1.411       .  S
C415        C416   1.205       .  T
C417        C418   1.206       .  T
C418        C419   1.414       .  S
C419        C420   1.206       .  T
C421        C422   1.206   1_455  T
C422        C423   1.414       .  S
C423        C424   1.206       .  T
C425        C426   1.210       .  T
C426        C427   1.419       .  S
C427        C428   1.210       .  T
C429        C430   1.205       .  T
C430        C431   1.411       .  S
C431        C432   1.205       .  T
C433        C434   1.212       .  T
C434        C435   1.423       .  S
C435        C436   1.212       .  T
C436        C774   1.444   1_554  S
C437        C438   1.212       .  T
C438        C439   1.423       .  S
C439        C440   1.212       .  T
C441        C442   1.210       .  T
C442        C443   1.419       .  S
C443        C444   1.210       .  T
C445        C446   1.212       .  T
C446        C447   1.423       .  S
C447        C448   1.212       .  T
C449        C450   1.205       .  T
C450        C451   1.411       .  S
C451        C452   1.205       .  T
C453        C454   1.206       .  T
C454        C455   1.413       .  S
C455        C456   1.206       .  T
C457        C458   1.206       .  T
C458        C459   1.414       .  S
C459        C460   1.206       .  T
C461        C643   1.445   1_554  S
C461        C462   1.212       .  T
C462        C463   1.423       .  S
C463        C464   1.212       .  T
C465        C466   1.210       .  T
C466        C467   1.419       .  S
C467        C468   1.210       .  T
C469        C470   1.205       .  T
C470        C471   1.411       .  S
C471        C472   1.205       .  T
C473        C862   1.445   1_554  S
C473        C474   1.212       .  T
C474        C475   1.423       .  S
C475        C476   1.212       .  T
C477       C1022   1.205       .  T
C478       C1021   1.205       .  T
C478        C479   1.411   1_556  S
C479        C480   1.205       .  T
C481        C482   1.212       .  T
C482        C483   1.423       .  S
C483        C484   1.212       .  T
C485        C486   1.205       .  T
C486        C487   1.411       .  S
C487        C488   1.205       .  T
C489        C490   1.206       .  T
C490        C491   1.414       .  S
C491        C492   1.206       .  T
C493        C494   1.206       .  T
C494        C495   1.414       .  S
C495        C496   1.206       .  T
C497        C498   1.210       .  T
C498        C499   1.419       .  S
C499        C500   1.210       .  T
C501        C502   1.212       .  T
C502        C503   1.423       .  S
C503        C504   1.212       .  T
C505        C506   1.205       .  T
C506        C507   1.411       .  S
C507        C508   1.205       .  T
C509        C510   1.205       .  T
C510        C511   1.411       .  S
C511        C512   1.205       .  T
C513        C514   1.206       .  T
C514        C515   1.414       .  S
C515        C516   1.206       .  T
C517        C518   1.207       .  T
C518        C519   1.414       .  S
C519        C520   1.206       .  T
C521        C555   1.445   1_554  S
C521        C522   1.212       .  T
C522        C523   1.423       .  S
C523        C524   1.212       .  T
C525       C1070   1.205       .  T
C526       C1069   1.205       .  T
C526        C527   1.411   1_556  S
C527        C528   1.205       .  T
C529        C530   1.206       .  T
C530        C531   1.414       .  S
C531        C532   1.206       .  T
C533        C534   1.206       .  T
C534        C535   1.414       .  S
C535        C536   1.206       .  T
C537        C538   1.210       .  T
C538        C539   1.419       .  S
C539        C540   1.210       .  T
C541        C542   1.205       .  T
C542        C543   1.411       .  S
C543        C544   1.205       .  T
Fe545       O556   1.967       .  S
Fe545       O558   2.065       .  S
Fe545       O550   2.098       .  S
Fe546       O556   1.962       .  S
Fe546       O549   2.068       .  S
Fe546       O553   2.047       .  S
Fe546       O557   2.067       .  S
Fe546       O562   2.050       .  S
Fe547       O565   2.056       .  S
Fe547       O559   2.097       .  S
Fe547       O548   2.052       .  S
O550        C555   1.274       .  A
O551        C554   1.264       .  A
O552        C564   1.280       .  A
O553        C566   1.267       .  A
C554        O559   1.275       .  A
C554       C1076   1.435       .  S
O557        C560   1.266       .  A
O558        C560   1.267       .  A
C560       C1077   1.435       .  S
O562        C564   1.270       .  A
C563        O565   1.262       .  A
C563       C1085   1.434       .  S
C564       C1081   1.442       .  S
C566       C1069   1.434       .  S
Fe567       O578   1.967       .  S
Fe567       O583   2.095       .  S
Fe567       O573   2.041       .  S
Fe567       O580   2.065       .  S
Fe567       O572   2.098       .  S
Fe568       O578   1.962       .  S
Fe568       O571   2.068       .  S
Fe568       O575   2.047       .  S
Fe568       O579   2.067       .  S
Fe568       O584   2.050       .  S
Fe569       O578   1.963       .  S
Fe569       O587   2.056       .  S
Fe569       O574   2.110       .  S
Fe569       O581   2.097       .  S
Fe569       O570   2.052       .  S
O570        C577   1.265       .  A
O571        C585   1.264       .  A
O572        C577   1.274       .  A
O573        C576   1.265       .  A
O574        C586   1.280       .  A
O575        C588   1.267       .  A
C576        O581   1.275       .  A
C576       C1060   1.435       .  S
C577       C1048   1.445       .  S
O579        C582   1.266       .  A
O580        C582   1.267       .  A
C582       C1061   1.436       .  S
O583        C588   1.275       .  A
O584        C586   1.270       .  A
C585        O587   1.262       .  A
C585       C1053   1.434       .  S
C586       C1084   1.442       .  S
C588       C1052   1.434       .  S
Fe589       O600   1.968       .  S
Fe589       O605   2.065       .  S
Fe589       O595   2.097       .  S
Fe589       O602   2.094       .  S
Fe589       O594   2.041       .  S
Fe590       O600   1.963       .  S
Fe590       O593   2.050       .  S
Fe590       O597   2.068       .  S
Fe590       O601   2.048       .  S
Fe590       O606   2.068       .  S
Fe591       O600   1.964       .  S
Fe591       O609   2.109       .  S
Fe591       O596   2.056       .  S
Fe591       O603   2.052       .  S
Fe591       O592   2.097       .  S
O592        C599   1.275       .  A
O593        C607   1.270       .  A
O594        C599   1.264       .  A
O595        C598   1.274       .  A
O596        C608   1.262       .  A
O597        C610   1.266       .  A
C598        O603   1.265       .  A
C598       C1025   1.445       .  S
C599       C1033   1.435       .  S
O601        C604   1.267       .  A
O602        C604   1.275       .  A
C604       C1029   1.434       .  S
O605        C610   1.267       .  A
O606        C608   1.264       .  A
C607        O609   1.279       .  A
C607       C1041   1.442       .  S
C608       C1049   1.434       .  S
C610       C1037   1.436       .  S
Fe611       O622   1.968       .  S
Fe611       O627   2.065       .  S
Fe611       O617   2.097       .  S
Fe611       O624   2.094       .  S
Fe612       O622   1.963       .  S
Fe612       O615   2.050       .  S
Fe612       O619   2.068       .  S
Fe612       O623   2.048       .  S
Fe612       O628   2.068       .  S
Fe613       O622   1.964       .  S
Fe613       O631   2.110       .  S
Fe613       O618   2.056       .  S
Fe613       O625   2.052       .  S
O614        C621   1.275       .  A
O615        C629   1.270       .  A
O616        C621   1.264       .  A
O617        C620   1.274       .  A
O618        C630   1.262       .  A
O619        C632   1.266       .  A
C620        O625   1.265       .  A
C620       C1020   1.445       .  S
C621       C1064   1.436       .  S
O623        C626   1.267       .  A
O624        C626   1.275       .  A
C626       C1088   1.434       .  S
O627        C632   1.267       .  A
O628        C630   1.264       .  A
C629        O631   1.279       .  A
C629       C1044   1.442       .  S
C630       C1024   1.433       .  S
C632       C1057   1.436       .  S
Fe633       O644   1.967       .  S
Fe633       O646   2.065       .  S
Fe633       O638   2.098       .  S
Fe634       O644   1.962       .  S
Fe634       O637   2.068       .  S
Fe634       O641   2.047       .  S
Fe634       O645   2.067       .  S
Fe634       O650   2.049       .  S
Fe635       O653   2.056       .  S
Fe635       O647   2.097       .  S
Fe635       O636   2.052       .  S
O638        C643   1.274       .  A
O639        C642   1.265       .  A
O640        C652   1.280       .  A
O641        C654   1.267       .  A
C642        O647   1.275       .  A
C642       C1040   1.435       .  S
O645        C648   1.266       .  A
O646        C648   1.267       .  A
C648       C1036   1.435       .  S
O650        C652   1.270       .  A
C651        O653   1.262       .  A
C651       C1013   1.434       .  S
C652       C1009   1.442       .  S
C654       C1021   1.434       .  S
Fe655       O666   1.967       .  S
Fe655       O671   2.096       .  S
Fe655       O661   2.041       .  S
Fe655       O668   2.065       .  S
Fe655       O660   2.098       .  S
Fe656       O666   1.962       .  S
Fe656       O659   2.069       .  S
Fe656       O663   2.047       .  S
Fe656       O667   2.067       .  S
Fe656       O672   2.050       .  S
Fe657       O666   1.962       .  S
Fe657       O675   2.056       .  S
Fe657       O662   2.110       .  S
Fe657       O669   2.097       .  S
Fe657       O658   2.052       .  S
O658        C665   1.265       .  A
O659        C673   1.264       .  A
O660        C665   1.274       .  A
O661        C664   1.264       .  A
O662        C674   1.280       .  A
O663        C676   1.267       .  A
C664        O669   1.275       .  A
C664        C997   1.435       .  S
C665        C992   1.445       .  S
O667        C670   1.266       .  A
O668        C670   1.267       .  A
C670       C1001   1.435       .  S
O671        C676   1.275       .  A
O672        C674   1.270       .  A
C673        O675   1.262       .  A
C673       C1032   1.434       .  S
C674       C1012   1.442       .  S
C676        C993   1.434       .  S
Fe677       O688   1.967       .  S
Fe677       O693   2.064       .  S
Fe677       O683   2.097       .  S
Fe677       O690   2.094       .  S
Fe677       O682   2.041       .  S
Fe678       O688   1.963       .  S
Fe678       O681   2.050       .  S
Fe678       O685   2.068       .  S
Fe678       O689   2.048       .  S
Fe678       O694   2.068       .  S
Fe679       O688   1.963       .  S
Fe679       O697   2.109       .  S
Fe679       O684   2.056       .  S
Fe679       O691   2.052       .  S
Fe679       O680   2.098       .  S
O680        C687   1.275       .  A
O681        C695   1.270       .  A
O682        C687   1.264       .  A
O683        C686   1.273       .  A
O684        C696   1.262       .  A
O685        C698   1.266       .  A
C686        O691   1.265       .  A
C686        C984   1.445       .  S
C687       C1080   1.435       .  S
O689        C692   1.267       .  A
O690        C692   1.275       .  A
C692       C1056   1.434       .  S
O693        C698   1.267       .  A
O694        C696   1.264       .  A
C695        O697   1.279       .  A
C695        C985   1.442       .  S
C696        C996   1.434       .  S
C698       C1073   1.436       .  S
Fe699       O710   1.967       .  S
Fe699       O715   2.064       .  S
Fe699       O705   2.097       .  S
Fe699       O712   2.094       .  S
Fe700       O710   1.963       .  S
Fe700       O703   2.050       .  S
Fe700       O707   2.068       .  S
Fe700       O711   2.048       .  S
Fe700       O716   2.068       .  S
Fe701       O710   1.963       .  S
Fe701       O719   2.109       .  S
Fe701       O706   2.056       .  S
Fe701       O713   2.052       .  S
O702        C709   1.275       .  A
O703        C717   1.270       .  A
O704        C709   1.264       .  A
O705        C708   1.273       .  A
O706        C718   1.262       .  A
O707        C720   1.266       .  A
C708        O713   1.265       .  A
C708        C977   1.444       .  S
C709       C1004   1.435       .  S
O711        C714   1.267       .  A
O712        C714   1.275       .  A
C714       C1016   1.434       .  S
O715        C720   1.267       .  A
O716        C718   1.264       .  A
C717        O719   1.279       .  A
C717        C988   1.442       .  S
C718       C1072   1.434       .  S
C720       C1000   1.435       .  S
Fe721       O732   1.967       .  S
Fe721       O737   2.096       .  S
Fe721       O727   2.041       .  S
Fe721       O734   2.065       .  S
Fe721       O726   2.098       .  S
Fe722       O732   1.962       .  S
Fe722       O725   2.068       .  S
Fe722       O729   2.047       .  S
Fe722       O733   2.068       .  S
Fe722       O738   2.050       .  S
Fe723       O732   1.963       .  S
Fe723       O741   2.056       .  S
Fe723       O728   2.110       .  S
Fe723       O735   2.097       .  S
Fe723       O724   2.052       .  S
O724        C731   1.265       .  A
O725        C739   1.264       .  A
O726        C731   1.274       .  A
O727        C730   1.265       .  A
O728        C740   1.280       .  A
O729        C742   1.267       .  A
C730        O735   1.275       .  A
C730        C961   1.435       .  S
C731        C989   1.445       .  S
O733        C736   1.266       .  A
O734        C736   1.267       .  A
C736        C965   1.435       .  S
O737        C742   1.275       .  A
O738        C740   1.270       .  A
C739        O741   1.262       .  A
C739        C976   1.434       .  S
C740        C972   1.442       .  S
C742        C960   1.434   1_455  S
Fe743       O754   1.967       .  S
Fe743       O759   2.096   1_545  S
Fe743       O756   2.065       .  S
Fe743       O748   2.098       .  S
Fe744       O754   1.961       .  S
Fe744       O747   2.068       .  S
Fe744       O751   2.047       .  S
Fe744       O755   2.067       .  S
Fe744       O760   2.050       .  S
Fe745       O754   1.962       .  S
Fe745       O763   2.056       .  S
Fe745       O750   2.110       .  S
Fe745       O746   2.052       .  S
O746        C753   1.265       .  A
O747        C761   1.264       .  A
O748        C753   1.274       .  A
O749        C752   1.264       .  A
O750        C762   1.280       .  A
O751        C764   1.267   1_545  A
C752        O757   1.275       .  A
C752        C952   1.435       .  S
C753       C1008   1.445       .  S
O755        C758   1.266       .  A
O756        C758   1.267       .  A
C758        C956   1.435   1_545  S
O759        C764   1.275       .  A
O760        C762   1.270       .  A
C761        O763   1.262       .  A
C761        C945   1.434       .  S
C762        C969   1.442       .  S
C764        C941   1.434       .  S
Fe765       O776   1.967       .  S
Fe765       O781   2.064       .  S
Fe765       O771   2.097       .  S
Fe765       O778   2.094       .  S
Fe766       O776   1.963       .  S
Fe766       O769   2.050       .  S
Fe766       O773   2.068       .  S
Fe766       O777   2.047       .  S
Fe766       O782   2.068       .  S
Fe767       O772   2.056       .  S
Fe767       O768   2.098       .  S
O768        C775   1.275       .  A
O769        C783   1.270       .  A
O770        C775   1.264       .  A
O771        C774   1.273       .  A
O772        C784   1.262       .  A
O773        C786   1.266       .  A
C774        O779   1.265       .  A
C775        C936   1.435       .  S
O777        C780   1.267       .  A
O778        C780   1.275       .  A
C780        C928   1.434   1_455  S
O781        C786   1.267       .  A
C783        O785   1.279       .  A
C783        C929   1.442       .  S
C784        C944   1.434       .  S
C786        C940   1.435       .  S
Fe787       O798   1.967       .  S
Fe787       O803   2.064       .  S
Fe787       O793   2.097       .  S
Fe787       O800   2.094       .  S
Fe787       O792   2.041       .  S
Fe788       O798   1.963       .  S
Fe788       O791   2.050       .  S
Fe788       O795   2.068       .  S
Fe788       O799   2.048       .  S
Fe788       O804   2.068       .  S
Fe789       O798   1.963       .  S
Fe789       O807   2.109       .  S
Fe789       O794   2.056       .  S
Fe789       O801   2.052       .  S
Fe789       O790   2.097       .  S
O790        C797   1.275       .  A
O791        C805   1.270       .  A
O792        C797   1.264       .  A
O793        C796   1.273       .  A
O794        C806   1.262       .  A
O795        C808   1.266       .  A
C796        O801   1.265       .  A
C796        C981   1.444       .  S
C797        C953   1.435       .  S
O799        C802   1.267       .  A
O800        C802   1.275       .  A
C802        C973   1.434   1_565  S
O803        C808   1.267       .  A
O804        C806   1.264       .  A
C805        O807   1.279       .  A
C805        C932   1.442       .  S
C806        C924   1.434       .  S
C808        C949   1.435       .  S
Fe809       O820   1.967       .  S
Fe809       O825   2.096   1_655  S
Fe809       O815   2.041       .  S
Fe809       O822   2.065       .  S
Fe809       O814   2.098       .  S
Fe810       O820   1.962       .  S
Fe810       O813   2.068       .  S
Fe810       O817   2.047       .  S
Fe810       O821   2.067       .  S
Fe810       O826   2.050       .  S
Fe811       O820   1.963       .  S
Fe811       O829   2.056       .  S
Fe811       O816   2.110       .  S
Fe811       O823   2.097       .  S
Fe811       O812   2.052       .  S
O812        C819   1.265       .  A
O813        C827   1.264       .  A
O814        C819   1.274       .  A
O815        C818   1.264       .  A
O816        C828   1.280       .  A
O817        C830   1.267   1_655  A
C818        O823   1.275       .  A
C818        C937   1.435       .  S
C819       C1045   1.445       .  S
O821        C824   1.266       .  A
O822        C824   1.267       .  A
C824        C933   1.436   1_655  S
O825        C830   1.275       .  A
O826        C828   1.270       .  A
C827        O829   1.262       .  A
C827        C920   1.434       .  S
C828        C913   1.442       .  S
C830        C921   1.434       .  S
Fe831       O842   1.967       .  S
Fe831       O847   2.095       .  S
Fe831       O844   2.065       .  S
Fe831       O836   2.098       .  S
Fe832       O842   1.962       .  S
Fe832       O835   2.068       .  S
Fe832       O839   2.047       .  S
Fe832       O843   2.067       .  S
Fe832       O848   2.050       .  S
Fe833       O842   1.963       .  S
Fe833       O851   2.056       .  S
Fe833       O838   2.110       .  S
Fe833       O834   2.052       .  S
O834        C841   1.265       .  A
O835        C849   1.264       .  A
O836        C841   1.274       .  A
O837        C840   1.264       .  A
O838        C850   1.280       .  A
O839        C852   1.267       .  A
C840        O845   1.275       .  A
C840        C908   1.435       .  S
C841       C1068   1.445       .  S
O843        C846   1.266       .  A
O844        C846   1.267       .  A
C846        C912   1.436       .  S
O847        C852   1.275       .  A
O848        C850   1.270       .  A
C849        O851   1.262       .  A
C849        C925   1.434       .  S
C850        C916   1.442       .  S
C852        C904   1.434   1_565  S
Fe853       O864   1.967       .  S
Fe853       O869   2.064       .  S
Fe853       O859   2.097       .  S
Fe853       O866   2.094   1_655  S
Fe854       O864   1.963       .  S
Fe854       O857   2.050       .  S
Fe854       O861   2.068       .  S
Fe854       O865   2.048       .  S
Fe854       O870   2.068       .  S
Fe855       O860   2.056       .  S
Fe855       O856   2.097       .  S
O856        C863   1.275       .  A
O857        C871   1.270       .  A
O858        C863   1.264       .  A
O859        C862   1.274       .  A
O860        C872   1.262       .  A
O861        C874   1.266       .  A
C862        O867   1.265       .  A
C863        C968   1.435       .  S
O865        C868   1.267   1_655  A
O866        C868   1.275       .  A
C868        C948   1.434       .  S
O869        C874   1.267       .  A
C871        O873   1.279       .  A
C871        C897   1.442       .  S
C872        C901   1.434       .  S
C874        C964   1.435   1_655  S
Fe875       O886   1.968       .  S
Fe875       O891   2.065       .  S
Fe875       O881   2.097       .  S
Fe875       O888   2.094   1_545  S
Fe875       O880   2.041       .  S
Fe876       O886   1.963       .  S
Fe876       O879   2.050       .  S
Fe876       O883   2.068       .  S
Fe876       O887   2.048       .  S
Fe876       O892   2.068       .  S
Fe877       O886   1.964       .  S
Fe877       O895   2.110       .  S
Fe877       O882   2.056       .  S
Fe877       O889   2.052       .  S
Fe877       O878   2.098       .  S
O878        C885   1.275       .  A
O879        C893   1.270       .  A
O880        C885   1.264       .  A
O881        C884   1.274       .  A
O882        C894   1.262       .  A
O883        C896   1.266       .  A
C884        O889   1.265       .  A
C884       C1028   1.445       .  S
C885        C909   1.436       .  S
O887        C890   1.267   1_545  A
O888        C890   1.275       .  A
C890        C917   1.434       .  S
O891        C896   1.267       .  A
O892        C894   1.264       .  A
C893        O895   1.279       .  A
C893        C900   1.442       .  S
C894        C957   1.434       .  S
C896        C905   1.436   1_545  S
C897        C898   1.210       .  T
C898        C899   1.419       .  S
C899        C900   1.210       .  T
C901        C902   1.205       .  T
C902        C903   1.411       .  S
C903        C904   1.205       .  T
C905        C906   1.206       .  T
C906        C907   1.414       .  S
C907        C908   1.206       .  T
C909        C910   1.207       .  T
C910        C911   1.414   1_545  S
C911        C912   1.207       .  T
C913        C914   1.210       .  T
C914        C915   1.419       .  S
C915        C916   1.210       .  T
C917        C918   1.205       .  T
C918        C919   1.411       .  S
C919        C920   1.205       .  T
C921        C922   1.205       .  T
C922        C923   1.411       .  S
C923        C924   1.205       .  T
C925        C926   1.205       .  T
C926        C927   1.411       .  S
C929        C930   1.210       .  T
C930        C931   1.419       .  S
C931        C932   1.210       .  T
C933        C934   1.206       .  T
C934        C935   1.414       .  S
C935        C936   1.206       .  T
C937        C938   1.206       .  T
C938        C939   1.414       .  S
C939        C940   1.206   1_655  T
C941        C942   1.205       .  T
C942        C943   1.411       .  S
C943        C944   1.205       .  T
C945        C946   1.205       .  T
C946        C947   1.411       .  S
C949        C950   1.206       .  T
C950        C951   1.414   1_565  S
C951        C952   1.206       .  T
C953        C954   1.206       .  T
C954        C955   1.414       .  S
C955        C956   1.206       .  T
C957        C958   1.205       .  T
C958        C959   1.411       .  S
C959        C960   1.205       .  T
C961        C962   1.206       .  T
C962        C963   1.414       .  S
C963        C964   1.206       .  T
C965        C966   1.206   1_455  T
C966        C967   1.414       .  S
C967        C968   1.206       .  T
C969        C970   1.210       .  T
C970        C971   1.419       .  S
C971        C972   1.210       .  T
C973        C974   1.205       .  T
C974        C975   1.411       .  S
C975        C976   1.205       .  T
C977        C978   1.212       .  T
C978        C979   1.423       .  S
C979        C980   1.212       .  T
C981        C982   1.212       .  T
C982        C983   1.423       .  S
C983        C984   1.212       .  T
C985        C986   1.210       .  T
C986        C987   1.419       .  S
C987        C988   1.210       .  T
C989        C990   1.212       .  T
C990        C991   1.423       .  S
C991        C992   1.212       .  T
C993        C994   1.205       .  T
C994        C995   1.411       .  S
C995        C996   1.205       .  T
C997        C998   1.206       .  T
C998        C999   1.413       .  S
C999       C1000   1.206       .  T
C1001      C1002   1.206       .  T
C1002      C1003   1.414       .  S
C1003      C1004   1.206       .  T
C1005      C1006   1.212       .  T
C1006      C1007   1.423       .  S
C1007      C1008   1.212       .  T
C1009      C1010   1.210       .  T
C1010      C1011   1.419       .  S
C1011      C1012   1.210       .  T
C1013      C1014   1.205       .  T
C1014      C1015   1.411       .  S
C1015      C1016   1.205       .  T
C1017      C1018   1.212       .  T
C1018      C1019   1.423       .  S
C1019      C1020   1.212       .  T
C1022      C1023   1.411       .  S
C1023      C1024   1.205       .  T
C1025      C1026   1.212       .  T
C1026      C1027   1.423       .  S
C1027      C1028   1.212       .  T
C1029      C1030   1.205       .  T
C1030      C1031   1.411       .  S
C1031      C1032   1.205       .  T
C1033      C1034   1.206       .  T
C1034      C1035   1.414       .  S
C1035      C1036   1.206       .  T
C1037      C1038   1.206       .  T
C1038      C1039   1.414       .  S
C1039      C1040   1.206       .  T
C1041      C1042   1.210       .  T
C1042      C1043   1.419       .  S
C1043      C1044   1.210       .  T
C1045      C1046   1.212       .  T
C1046      C1047   1.423       .  S
C1047      C1048   1.212       .  T
C1049      C1050   1.205       .  T
C1050      C1051   1.411       .  S
C1051      C1052   1.205       .  T
C1053      C1054   1.205       .  T
C1054      C1055   1.411       .  S
C1055      C1056   1.205       .  T
C1057      C1058   1.206       .  T
C1058      C1059   1.414       .  S
C1059      C1060   1.206       .  T
C1061      C1062   1.207       .  T
C1062      C1063   1.414       .  S
C1063      C1064   1.206       .  T
C1065      C1066   1.212       .  T
C1066      C1067   1.423       .  S
C1067      C1068   1.212       .  T
C1070      C1071   1.411       .  S
C1071      C1072   1.205       .  T
C1073      C1074   1.206       .  T
C1074      C1075   1.414       .  S
C1075      C1076   1.206       .  T
C1077      C1078   1.206       .  T
C1078      C1079   1.414       .  S
C1079      C1080   1.206       .  T
C1081      C1082   1.210       .  T
C1082      C1083   1.419       .  S
C1083      C1084   1.210       .  T
C1085      C1086   1.205       .  T
C1086      C1087   1.411       .  S
C1087      C1088   1.205       .  T
