geometry optimzed in LAMMPS
_audit_creation_date              2020-12-01 
_audit_creation_method            'lammps2cif' 
_symmetry_space_group_name_H-M    'P1' 
_symmetry_Int_Tables_number       1 
_symmetry_cell_setting            triclinic 
loop_ 
_symmetry_equiv_pos_as_xyz 
  x,y,z 
_cell_length_a                    52.15294655 
_cell_length_b                    52.076148071152794 
_cell_length_c                    30.63739120155314 
_cell_angle_alpha                 89.96967670653922 
_cell_angle_beta                  88.79633200832009 
_cell_angle_gamma                 89.9565108888606 
loop_ 
_atom_site_label 
_atom_site_type_symbol 
_atom_site_fract_x 
_atom_site_fract_y 
_atom_site_fract_z 
_atom_site_charge 
O1          O  0.35162456  0.82767687  0.43235658    -0.82400
C2          C  0.35465177  0.86892920  0.26898604     0.97000
O3          O  0.33835106  0.86053370  0.29640498    -0.71500
O4          O  0.32172011  0.83098100  0.35946970    -0.75100
Al5        Al  0.33977928  0.86340977  0.35744312     1.49000
C6          C  0.32896503  0.80869689  0.34802344     0.92200
O7          O  0.40332249  0.80836499  0.34855707    -0.81300
O8          O  0.42210309  0.85847694  0.37260228    -0.74900
Al9        Al  0.37660076  0.82101030  0.38654463     1.90100
O10         O  0.40576763  0.83668362  0.29590494    -0.73900
O11         O  0.39136413  0.89787301  0.35951251    -0.73800
O12         O  0.37649341  0.87659767  0.28072804    -0.79400
O13         O  0.34973349  0.89898520  0.35396453    -0.77600
O14         O  0.37123475  0.85024360  0.35787021    -1.13800
O15         O  0.33913854  0.86718879  0.41922655    -0.73000
C16         C  0.34249352  0.84890328  0.44561917     0.97800
C17         C  0.41254828  0.81561157  0.31222017     0.94100
Al18       Al  0.39676836  0.86613871  0.32962797     1.55600
O19         O  0.35228972  0.80245437  0.35183092    -0.77600
C20         C  0.37068686  0.91042465  0.36012548     0.98300
C21         C  0.42137045  0.84839620  0.41028164     0.93200
O22         O  0.40162885  0.83625537  0.42346780    -0.82900
O23         O  0.35257610  0.82840008  0.93674772    -0.82400
C24         C  0.35010407  0.86242502  0.76817770     0.97000
O25         O  0.33497317  0.85400401  0.79748379    -0.71500
O26         O  0.32222167  0.82656635  0.86613019    -0.75100
Al27       Al  0.33796857  0.85973901  0.85817370     1.49000
C28         C  0.33082479  0.80409391  0.85945355     0.92200
O29         O  0.40534874  0.80859667  0.85538638    -0.81300
O30         O  0.42081221  0.85928325  0.86845097    -0.74900
Al31       Al  0.37767802  0.82140820  0.89169583     1.90100
O32         O  0.40317148  0.83238867  0.79688128    -0.73900
O33         O  0.38819325  0.89597547  0.85078100    -0.73800
O34         O  0.37227613  0.87042060  0.77736205    -0.79400
O35         O  0.34631098  0.89527464  0.84939841    -0.77600
O36         O  0.36998124  0.84822286  0.85838627    -1.13800
O37         O  0.33847499  0.86664710  0.91913886    -0.73000
C38         C  0.34286970  0.84975713  0.94755470     0.97800
C39         C  0.41310827  0.81402245  0.81717965     0.94100
Al40       Al  0.39411785  0.86332730  0.82595537     1.55600
O41         O  0.35462911  0.79960012  0.86165984    -0.77600
C42         C  0.36705426  0.90762960  0.85188396     0.98300
C43         C  0.42044994  0.85246807  0.90825585     0.93200
O44         O  0.40121471  0.84090049  0.92460292    -0.82900
O45         O  0.40356305  0.17749957  0.44713755    -0.82400
C46         C  0.34702652  0.14343164  0.30381362     0.97000
O47         O  0.36944154  0.13646856  0.31356171    -0.71500
O48         O  0.39982534  0.17589014  0.32063434    -0.75100
Al49       Al  0.39266481  0.14729140  0.35703872     1.49000
C50         C  0.40925889  0.19643447  0.33474278     0.92200
O51         O  0.35094198  0.21295587  0.38821493    -0.81300
O52         O  0.34019039  0.14815193  0.45584230    -0.74900
Al53       Al  0.37730844  0.19326277  0.41552774     1.90100
O54         O  0.32093194  0.18422901  0.40014295    -0.73900
O55         O  0.34663847  0.11569157  0.38790991    -0.73800
O56         O  0.33242920  0.15427344  0.33179176    -0.79400
O57         O  0.38846994  0.11632105  0.38934621    -0.77600
O58         O  0.36922487  0.16415690  0.38853655    -1.13800
O59         O  0.42087819  0.15503213  0.39377066    -0.73000
C60         C  0.42246590  0.16574784  0.43058407     0.97800
C61         C  0.32752359  0.20741041  0.39475191     0.94100
Al62       Al  0.33755558  0.15163748  0.39351756     1.55600
O63         O  0.40219166  0.20504930  0.37176727    -0.77600
C64         C  0.36776032  0.10385741  0.39027122     0.98300
C65         C  0.34559139  0.16670802  0.48088278     0.93200
O66         O  0.35575157  0.18695606  0.46551719    -0.82900
O67         O  0.34825901  0.18510677  0.82669417    -0.82400
C68         C  0.33779195  0.13394951  0.98256863     0.97000
O69         O  0.32355522  0.14622617  0.95701117    -0.71500
O70         O  0.31285513  0.18038034  0.89638052    -0.75100
Al71       Al  0.32852272  0.14675273  0.89475159     1.49000
C72         C  0.32141124  0.20206038  0.90796981     0.92200
O73         O  0.39464645  0.19620996  0.92094195    -0.81300
O74         O  0.41246884  0.14911531  0.89236467    -0.74900
Al75       Al  0.37005193  0.18768438  0.87619868     1.90100
O76         O  0.38783145  0.16535678  0.96831020    -0.73900
O77         O  0.37954025  0.11153374  0.88919976    -0.73800
O78         O  0.35898201  0.12497847  0.96887708    -0.79400
O79         O  0.33748535  0.11039183  0.89198485    -0.77600
O80         O  0.36047369  0.15789053  0.89920929    -1.13800
O81         O  0.33101184  0.14673187  0.83259961    -0.73000
C82         C  0.33788717  0.16570998  0.80940167     0.97800
C83         C  0.39834236  0.18626218  0.95810176     0.94100
Al84       Al  0.38292561  0.13923513  0.92743237     1.55600
O85         O  0.34523331  0.20603982  0.90909334    -0.77600
C86         C  0.35891697  0.09940302  0.88458704     0.98300
C87         C  0.41418417  0.15932122  0.85493459     0.93200
O88         O  0.39580346  0.17225197  0.84041253    -0.82900
O89         O  0.64639694  0.82746418  0.07676885    -0.82400
C90         C  0.64035162  0.86708618  0.24200806     0.97000
O91         O  0.65704912  0.85934517  0.21476774    -0.71500
O92         O  0.67417091  0.83010024  0.15178078    -0.75100
Al93       Al  0.65604999  0.86251642  0.15354068     1.49000
C94         C  0.66656174  0.80758042  0.16112973     0.92200
O95         O  0.59223191  0.80701122  0.15496478    -0.81300
O96         O  0.57415878  0.85642027  0.13537671    -0.74900
Al97       Al  0.62015822  0.82046701  0.12018505     1.90100
O98         O  0.59052347  0.83291426  0.21103116    -0.73900
O99         O  0.60354357  0.89591927  0.15241395    -0.73800
O100        O  0.61814948  0.87349537  0.23011904    -0.79400
O101        O  0.64526314  0.89785274  0.15664898    -0.77600
O102        O  0.62489656  0.84893631  0.15135514    -1.13800
O103        O  0.65746805  0.86698031  0.09211699    -0.73000
C104        C  0.65489598  0.84911037  0.06485003     0.97800
C105        C  0.58301487  0.81295847  0.19196765     0.94100
Al106      Al  0.59877302  0.86352273  0.17991347     1.55600
O107        O  0.64340204  0.80135006  0.15526223    -0.77600
C108        C  0.62399041  0.90877825  0.15054658     0.98300
C109        C  0.57614579  0.84838219  0.09637075     0.93200
O110        O  0.59638175  0.83716928  0.08287767    -0.82900
O111        O  0.64783483  0.82720507  0.57562893    -0.82400
C112        C  0.64523289  0.86376596  0.74196776     0.97000
O113        O  0.66138025  0.85528506  0.71426573    -0.71500
O114        O  0.67715449  0.82787862  0.64742530    -0.75100
Al115      Al  0.65976830  0.86031153  0.65324344     1.49000
C116        C  0.66944718  0.80566593  0.65812906     0.92200
O117        O  0.59473739  0.80648874  0.65693839    -0.81300
O118        O  0.57717173  0.85675405  0.63732053    -0.74900
Al119      Al  0.62235989  0.81963890  0.62045380     1.90100
O120        O  0.59432939  0.83294147  0.71227659    -0.73900
O121        O  0.60866784  0.89542268  0.65390425    -0.73800
O122        O  0.62346544  0.87183709  0.73033637    -0.79400
O123        O  0.65030710  0.89556715  0.66046555    -0.77600
O124        O  0.62816906  0.84776752  0.65156890    -1.13800
O125        O  0.65996297  0.86635185  0.59211943    -0.73000
C126        C  0.65614620  0.84910336  0.56403775     0.97800
C127        C  0.58616861  0.81301570  0.69418221     0.94100
Al128      Al  0.60293307  0.86305332  0.68099711     1.55600
O129        O  0.64600688  0.79988983  0.65425578    -0.77600
C130        C  0.62954978  0.90754283  0.65543549     0.98300
C131        C  0.57834624  0.84812070  0.59856786     0.93200
O132        O  0.59824496  0.83664494  0.58449379    -0.82900
O133        O  0.58515045  0.17544593  0.07131372    -0.82400
C134        C  0.64070972  0.14086086  0.21612483     0.97000
O135        O  0.61870954  0.13313349  0.20531620    -0.71500
O136        O  0.58737084  0.17234346  0.19824195    -0.75100
Al137      Al  0.59573849  0.14422374  0.16101202     1.49000
C138        C  0.57787449  0.19290543  0.18408845     0.92200
O139        O  0.63647511  0.21100393  0.13368137    -0.81300
O140        O  0.64960506  0.14744319  0.06446923    -0.74900
Al141      Al  0.61090964  0.19120368  0.10439635     1.90100
O142        O  0.66719801  0.18298919  0.12229238    -0.73900
O143        O  0.64277441  0.11387385  0.12969936    -0.73800
O144        O  0.65536673  0.15190985  0.18854138    -0.79400
O145        O  0.60095638  0.11381963  0.12755107    -0.77600
O146        O  0.61919505  0.16190627  0.13081053    -1.13800
O147        O  0.56778902  0.15212710  0.12358458    -0.73000
C148        C  0.56606797  0.16379493  0.08757151     0.97800
C149        C  0.66010341  0.20595313  0.12843167     0.94100
Al150      Al  0.65115694  0.15004497  0.12667208     1.55600
O151        O  0.58533252  0.20193739  0.14758610    -0.77600
C152        C  0.62194942  0.10182364  0.12516619     0.98300
C153        C  0.64457572  0.16618944  0.03967374     0.93200
O154        O  0.63335676  0.18598698  0.05471519    -0.82900
O155        O  0.64365002  0.18607156  0.69740755    -0.82400
C156        C  0.65076993  0.13465115  0.54047248     0.97000
O157        O  0.66533442  0.14741573  0.56468898    -0.71500
O158        O  0.67648240  0.18256967  0.62257278    -0.75100
Al159      Al  0.66252966  0.14828783  0.62713055     1.49000
C160        C  0.66641395  0.20363193  0.61107363     0.92200
O161        O  0.59331730  0.19462808  0.60865450    -0.81300
O162        O  0.57851253  0.14713787  0.63801600    -0.74900
Al163      Al  0.61987616  0.18737787  0.65035186     1.90100
O164        O  0.59982896  0.16425976  0.56014005    -0.73900
O165        O  0.61337086  0.11084362  0.63813723    -0.73800
O166        O  0.63038239  0.12497222  0.55622461    -0.79400
O167        O  0.65535456  0.11161748  0.63161122    -0.77600
O168        O  0.62997056  0.15800729  0.62611464    -1.13800
O169        O  0.66240746  0.14855630  0.68925491    -0.73000
C170        C  0.65555749  0.16715323  0.71327806     0.97800
C171        C  0.58871976  0.18459063  0.57196027     0.94100
Al172      Al  0.60735668  0.13834171  0.60024433     1.55600
O173        O  0.64250598  0.20695621  0.61472550    -0.77600
C174        C  0.63471541  0.09972189  0.64115405     0.98300
C175        C  0.57745779  0.15760759  0.67524480     0.93200
O176        O  0.59607762  0.17067153  0.68860109    -0.82900
O177        O  0.82189277  0.60311626  0.21884563    -0.82400
C178        C  0.85725880  0.65846402  0.36425524     0.97000
O179        O  0.86455555  0.63638989  0.35191328    -0.71500
O180        O  0.82528896  0.60543655  0.34560042    -0.75100
Al181      Al  0.85320530  0.61353660  0.30745704     1.49000
C182        C  0.80469072  0.59589188  0.33235244     0.92200
O183        O  0.78633994  0.65468563  0.28339744    -0.81300
O184        O  0.84992436  0.66762351  0.21345244    -0.74900
Al185      Al  0.80618749  0.62891022  0.25320117     1.90100
O186        O  0.81434926  0.68550007  0.27313205    -0.73900
O187        O  0.88295786  0.66068510  0.27684142    -0.73800
O188        O  0.84553873  0.67319871  0.33840903    -0.79400
O189        O  0.88366302  0.61876511  0.27296498    -0.77600
O190        O  0.83540572  0.63716005  0.27899142    -1.13800
O191        O  0.84513192  0.58543707  0.26940267    -0.73000
C192        C  0.83371391  0.58400546  0.23349556     0.97800
C193        C  0.79137265  0.67833008  0.27855722     0.94100
Al194      Al  0.84715945  0.66917013  0.27588284     1.55600
O195        O  0.79541792  0.60332134  0.29648978    -0.77600
C196        C  0.89519265  0.64003756  0.27043109     0.98300
C197        C  0.83163987  0.66212692  0.18854780     0.93200
O198        O  0.81160889  0.65122232  0.20364539    -0.82900
O199        O  0.82333859  0.65927409  0.84441115    -0.82400
C200        C  0.87321223  0.66702102  0.68617587     0.97000
O201        O  0.86151589  0.68159112  0.71292417    -0.71500
O202        O  0.82738670  0.69255984  0.77493950    -0.75100
Al203      Al  0.86157728  0.67755296  0.77515828     1.49000
C204        C  0.80603519  0.68343494  0.76304643     0.92200
O205        O  0.81327810  0.60922952  0.75417428    -0.81300
O206        O  0.86118218  0.59374096  0.78047932    -0.74900
Al207      Al  0.82146647  0.63577239  0.79636815     1.90100
O208        O  0.84336766  0.61503265  0.70440814    -0.73900
O209        O  0.89837930  0.62771838  0.77839165    -0.73800
O210        O  0.88240253  0.64585815  0.69887749    -0.79400
O211        O  0.89844665  0.66969404  0.77491622    -0.77600
O212        O  0.85102874  0.64524874  0.77157696    -1.13800
O213        O  0.86195143  0.67594277  0.83803236    -0.73000
C214        C  0.84244913  0.67008908  0.86139060     0.97800
C215        C  0.82301853  0.60414389  0.71696988     0.94100
Al216      Al  0.86989133  0.62245003  0.74291984     1.55600
O217        O  0.80251497  0.65941822  0.76263778    -0.77600
C218        C  0.91035899  0.64864827  0.78022219     0.98300
C219        C  0.85029738  0.59262777  0.81776290     0.93200
O220        O  0.83761983  0.61142739  0.83261925    -0.82900
O221        O  0.16034413  0.60896151  0.30143945    -0.82400
C222        C  0.12758834  0.66932850  0.16297533     0.97000
O223        O  0.11699073  0.64861822  0.17505883    -0.71500
O224        O  0.15524923  0.61709630  0.17515687    -0.75100
Al225      Al  0.12871305  0.62365297  0.21579455     1.49000
C226        C  0.17490108  0.60486756  0.18569041     0.92200
O227        O  0.19784632  0.66027624  0.23917597    -0.81300
O228        O  0.13567613  0.67395753  0.31435045    -0.74900
Al229      Al  0.17713022  0.63456784  0.26834095     1.90100
O230        O  0.17154754  0.69197053  0.25494256    -0.73900
O231        O  0.10083643  0.67032558  0.25060594    -0.73800
O232        O  0.13971979  0.68290922  0.18989555    -0.79400
O233        O  0.10001785  0.62837721  0.25334742    -0.77600
O234        O  0.14795978  0.64519750  0.24546640    -1.13800
O235        O  0.13628481  0.59362052  0.24985371    -0.73000
C236        C  0.14656878  0.59132393  0.28659796     0.97800
C237        C  0.19406227  0.68398683  0.24647551     0.94100
Al238      Al  0.13770436  0.67742504  0.25191591     1.55600
O239        O  0.18547424  0.60953621  0.22190915    -0.77600
C240        C  0.08838172  0.64952829  0.25559185     0.98300
C241        C  0.15447933  0.66701550  0.33727269     0.93200
O242        O  0.17366986  0.65568777  0.31974547    -0.82900
O243        O  0.18486192  0.64737147  0.67612987    -0.82400
C244        C  0.14331965  0.65092923  0.84226974     0.97000
O245        O  0.15368651  0.66599055  0.81483035    -0.71500
O246        O  0.18337636  0.67922224  0.74834132    -0.75100
Al247      Al  0.15056460  0.66285579  0.75302851     1.49000
C248        C  0.20522078  0.67100389  0.75878906     0.92200
O249        O  0.20303381  0.59714201  0.76168228    -0.81300
O250        O  0.15378942  0.57939516  0.74300280    -0.74900
Al251      Al  0.19101168  0.62339606  0.72291084     1.90100
O252        O  0.17564069  0.59906006  0.81661600    -0.73900
O253        O  0.11436735  0.61197147  0.75531313    -0.73800
O254        O  0.13594571  0.62881900  0.83099507    -0.79400
O255        O  0.11506335  0.65398357  0.75865140    -0.77600
O256        O  0.16240938  0.63085833  0.75301490    -1.13800
O257        O  0.14640619  0.66254672  0.69116004    -0.73000
C258        C  0.16436581  0.65806719  0.66384392     0.97800
C259        C  0.19580286  0.58999865  0.79934629     0.94100
Al260      Al  0.14617944  0.60677404  0.78375381     1.55600
O261        O  0.21047201  0.64743449  0.75519494    -0.77600
C262        C  0.10266699  0.63325692  0.75568208     0.98300
C263        C  0.16443434  0.57836259  0.70543287     0.93200
O264        O  0.17461769  0.59816230  0.68867711    -0.82900
O265        O  0.82114827  0.41675698  0.58611042    -0.82400
C266        C  0.85388038  0.36153715  0.43626046     0.97000
O267        O  0.86134557  0.38369887  0.44723567    -0.71500
O268        O  0.82317684  0.41554517  0.45889258    -0.75100
Al269      Al  0.85159571  0.40648937  0.49346049     1.49000
C270        C  0.80304978  0.42546095  0.47472236     0.92200
O271        O  0.78500276  0.36672098  0.52170916    -0.81300
O272        O  0.84849867  0.35222808  0.58818475    -0.74900
Al273      Al  0.80496900  0.39156553  0.55204028     1.90100
O274        O  0.81226372  0.33521704  0.53094319    -0.73900
O275        O  0.88115545  0.35862142  0.52029375    -0.73800
O276        O  0.84299197  0.34680472  0.46381751    -0.79400
O277        O  0.88291513  0.40046912  0.52311553    -0.77600
O278        O  0.83399377  0.38307094  0.52370989    -1.13800
O279        O  0.84458322  0.43414024  0.53365267    -0.73000
C280        C  0.83304611  0.43577958  0.57037098     0.97800
C281        C  0.78964651  0.34293039  0.52478613     0.94100
Al282      Al  0.84530881  0.35084145  0.52574721     1.55600
O283        O  0.79425274  0.41790281  0.51134876    -0.77600
C284        C  0.89417314  0.37899248  0.52234224     0.98300
C285        C  0.82981114  0.35732418  0.61389814     0.93200
O286        O  0.80999593  0.36844359  0.59985421    -0.82900
O287        O  0.81243740  0.36124313  0.96048496    -0.82400
C288        C  0.86424908  0.35122915  0.11234945     0.97000
O289        O  0.85180916  0.33692916  0.08703691    -0.71500
O290        O  0.81693507  0.32699810  0.02837090    -0.75100
Al291      Al  0.85117925  0.34134910  0.02498126     1.49000
C292        C  0.79611395  0.33607942  0.04410054     0.92200
O293        O  0.80459987  0.41010621  0.05414145    -0.81300
O294        O  0.85262345  0.42482443  0.02110235    -0.74900
Al295      Al  0.81135195  0.38409669  0.00984934     1.90100
O296        O  0.83595453  0.40359031  0.09910996    -0.73900
O297        O  0.88838231  0.39011892  0.01712459    -0.73800
O298        O  0.87412800  0.37189003  0.09828485    -0.79400
O299        O  0.88816660  0.34823868  0.02126442    -0.77600
O300        O  0.84124636  0.37382780  0.03041469    -1.13800
O301        O  0.85085842  0.34382274  0.96269758    -0.73000
C302        C  0.83158979  0.35088949  0.94121413     0.97800
C303        C  0.81563571  0.41505866  0.08962187     0.94100
Al304      Al  0.86122605  0.39584730  0.05675187     1.55600
O305        O  0.79270798  0.36011637  0.04542456    -0.77600
C306        C  0.90015802  0.36909873  0.01426349     0.98300
C307        C  0.84107766  0.42697219  0.98537611     0.93200
O308        O  0.82684974  0.40907949  0.97224352    -0.82900
O309        O  0.17630266  0.36807249  0.06440264    -0.82400
C310        C  0.13248800  0.36156935  0.90367883     0.97000
O311        O  0.14329033  0.34695895  0.93062567    -0.71500
O312        O  0.17368915  0.33499817  0.99460470    -0.75100
Al313      Al  0.14097446  0.35084228  0.99254591     1.49000
C314        C  0.19575412  0.34272547  0.98337377     0.92200
O315        O  0.19232093  0.41665780  0.97508793    -0.81300
O316        O  0.14232802  0.43447717  0.00011534    -0.74900
Al317      Al  0.18137139  0.39119946  0.01631571     1.90100
O318        O  0.16357589  0.41529643  0.92403654    -0.73900
O319        O  0.10414043  0.40066667  0.99385362    -0.73800
O320        O  0.12465122  0.38365428  0.91509830    -0.79400
O321        O  0.10531902  0.35875348  0.99067977    -0.77600
O322        O  0.15240939  0.38301596  0.98993011    -1.13800
O323        O  0.13788916  0.35194940  0.05474385    -0.73000
C324        C  0.15649145  0.35675903  0.07927880     0.97800
C325        C  0.18432442  0.42388119  0.93851897     0.94100
Al326      Al  0.13500271  0.40653132  0.96083319     1.55600
O327        O  0.20089133  0.36643974  0.98357993    -0.77600
C328        C  0.09282421  0.37924978  0.99613614     0.98300
C329        C  0.15349673  0.43612150  0.03635934     0.93200
O330        O  0.16528924  0.41697329  0.05151004    -0.82900
O331        O  0.15762830  0.40894652  0.43671247    -0.82400
C332        C  0.12665647  0.34951172  0.58149714     0.97000
O333        O  0.11716167  0.37080272  0.57053798    -0.71500
O334        O  0.15625144  0.40145590  0.56417474    -0.75100
Al335      Al  0.12847018  0.39507033  0.52769286     1.49000
C336        C  0.17636648  0.41243193  0.55069927     0.92200
O337        O  0.19634701  0.35796567  0.49525629    -0.81300
O338        O  0.13320774  0.34347368  0.42891280    -0.74900
Al339      Al  0.17523635  0.38333258  0.46820622     1.90100
O340        O  0.16946032  0.32620995  0.48547807    -0.73900
O341        O  0.09923697  0.34867024  0.49560475    -0.73800
O342        O  0.13827105  0.33565660  0.55347267    -0.79400
O343        O  0.09871371  0.39068602  0.49450267    -0.77600
O344        O  0.14659248  0.37306925  0.49561201    -1.13800
O345        O  0.13566752  0.42460725  0.49232763    -0.73000
C346        C  0.14466213  0.42679058  0.45395613     0.97800
C347        C  0.19216874  0.33420643  0.49014388     0.94100
Al348      Al  0.13586375  0.34092029  0.49129245     1.55600
O349        O  0.18513178  0.40809879  0.51246446    -0.77600
C350        C  0.08696841  0.36962858  0.49205885     0.98300
C351        C  0.15180957  0.34984254  0.40385181     0.93200
O352        O  0.17086522  0.36187238  0.41849072    -0.82900
C353        C  0.12874772  0.35329970  0.85815394    -0.01900
C354        C  0.10645729  0.36060522  0.83689668    -0.09900
C355        C  0.10365119  0.35598555  0.79243278    -0.18700
C356        C  0.12359949  0.34446355  0.76723452     0.03700
C357        C  0.14602176  0.33649318  0.78915012     0.17900
C358        C  0.14816838  0.34041824  0.83451052    -0.20100
C359        C  0.16663114  0.32581065  0.76531790    -0.21400
C360        C  0.16594506  0.32400650  0.71991962    -0.19900
C361        C  0.14442059  0.33236682  0.69724765     0.19300
C362        C  0.12260765  0.34188789  0.72079643     0.01400
C363        C  0.10107157  0.34946373  0.69668503    -0.14700
C364        C  0.10204441  0.34981955  0.65123858    -0.12400
C365        C  0.12414414  0.34222088  0.62802769     0.00900
C366        C  0.14498944  0.33245807  0.65108297    -0.24600
H367        H  0.09118349  0.37044514  0.85471329     0.08900
H368        H  0.08608367  0.36260580  0.77861329     0.12500
H369        H  0.16556256  0.33495025  0.85081811     0.11200
H370        H  0.18376290  0.31962912  0.78171928     0.12400
H371        H  0.18257364  0.31652769  0.70239630     0.11400
H372        H  0.08346718  0.35595127  0.71179528     0.08500
H373        H  0.08564064  0.35722552  0.63402674     0.11800
H374        H  0.16222688  0.32675035  0.63333856     0.13600
C375        C  0.15570877  0.34939938  0.12586863    -0.01900
C376        C  0.17876065  0.34679121  0.14803082    -0.09900
C377        C  0.17883498  0.34282105  0.19294021    -0.18700
C378        C  0.15565867  0.34181549  0.21764340     0.03700
C379        C  0.13222805  0.34322840  0.19480845     0.17900
C380        C  0.13244138  0.34672693  0.14918623    -0.20100
C381        C  0.10878631  0.34213508  0.21788630    -0.21400
C382        C  0.10809107  0.34088060  0.26332210    -0.19900
C383        C  0.13081763  0.34074801  0.28685966     0.19300
C384        C  0.15494245  0.34059416  0.26423566     0.01400
C385        C  0.17735689  0.34042270  0.28931013    -0.14700
C386        C  0.17590810  0.34216710  0.33457839    -0.12400
C387        C  0.15218901  0.34370292  0.35674047     0.00900
C388        C  0.12963464  0.34196671  0.33285743    -0.24600
H389        H  0.19699087  0.34829060  0.13059159     0.08900
H390        H  0.19743011  0.34128859  0.20733537     0.12500
H391        H  0.11451015  0.34865334  0.13218728     0.11200
H392        H  0.09083826  0.34295391  0.20073486     0.12400
H393        H  0.08962490  0.34077483  0.28022127     0.11400
H394        H  0.19638756  0.33978374  0.27503575     0.08500
H395        H  0.19362932  0.34300620  0.35237915     0.11800
H396        H  0.11121094  0.34312528  0.34982243     0.13600
C397        C  0.92838740  0.36994826  0.00686130    -0.01900
C398        C  0.94045552  0.39401202  0.00523555    -0.09900
C399        C  0.96699094  0.39619069  0.00433994    -0.18700
C400        C  0.98279596  0.37423995  0.00474777     0.03700
C401        C  0.97073382  0.34972057  0.00412064     0.17900
C402        C  0.94369833  0.34774745  0.00560756    -0.20100
C403        C  0.98579478  0.32744334  0.00243764    -0.21400
C404        C  0.01249148  0.32904440  0.00135819    -0.19900
C405        C  0.02482019  0.35294131  0.00285354     0.19300
C406        C  0.01012543  0.37586620  0.00528165     0.01400
C407        C  0.02343249  0.39947306  0.00833418    -0.14700
C408        C  0.05015101  0.40038280  0.00682949    -0.12400
C409        C  0.06461259  0.37788763  0.00255261     0.00900
C410        C  0.05177903  0.35413350  0.00143171    -0.24600
H411        H  0.92931908  0.41157987  0.00587947     0.08900
H412        H  0.97447421  0.41545562  0.00327013     0.12500
H413        H  0.93464942  0.32901476  0.00664488     0.11200
H414        H  0.97687529  0.30866370  0.00168751     0.12400
H415        H  0.02357952  0.31144946  0.99957638     0.11400
H416        H  0.01380241  0.41767931  0.01187549     0.08500
H417        H  0.05951295  0.41891526  0.00822008     0.11800
H418        H  0.06275450  0.33650221  0.99847275     0.13600
C419        C  0.05851663  0.36986839  0.48898624    -0.01900
C420        C  0.04438347  0.34701981  0.49116210    -0.09900
C421        C  0.01757119  0.34749573  0.49497938    -0.18700
C422        C  0.00391262  0.37101594  0.49716534     0.03700
C423        C  0.01823396  0.39408570  0.49245973     0.17900
C424        C  0.04514165  0.39331355  0.48834418    -0.20100
C425        C  0.00569435  0.41788145  0.49310761    -0.21400
C426        C  0.97922807  0.41934600  0.49935328    -0.19900
C427        C  0.96459757  0.39707930  0.50568400     0.19300
C428        C  0.97670452  0.37256201  0.50454360     0.01400
C429        C  0.96108505  0.35073867  0.51171791    -0.14700
C430        C  0.93466327  0.35313020  0.51918723    -0.12400
C431        C  0.92267612  0.37727540  0.51980041     0.00900
C432        C  0.93789588  0.39920937  0.51313808    -0.24600
H433        H  0.05411961  0.32864215  0.49132208     0.08900
H434        H  0.00812862  0.32912578  0.49693867     0.12500
H435        H  0.05574928  0.41118848  0.48628321     0.11200
H436        H  0.01648172  0.43554437  0.48920713     0.12400
H437        H  0.97018061  0.43809316  0.49989722     0.11400
H438        H  0.96870284  0.33149978  0.51181397     0.08500
H439        H  0.92347218  0.33579201  0.52380185     0.11800
H440        H  0.92889970  0.41798876  0.51291195     0.13600
C441        C  0.83026961  0.35082626  0.66104898    -0.01900
C442        C  0.80697219  0.34981633  0.68461382    -0.09900
C443        C  0.80636838  0.34758015  0.72986549    -0.18700
C444        C  0.82924268  0.34652288  0.75362284     0.03700
C445        C  0.85289249  0.34565659  0.72964893     0.17900
C446        C  0.85324394  0.34780521  0.68363160    -0.20100
C447        C  0.87596950  0.34330668  0.75194466    -0.21400
C448        C  0.87605371  0.34226139  0.79746781    -0.19900
C449        C  0.85311997  0.34416110  0.82196730     0.19300
C450        C  0.82940672  0.34657031  0.80027865     0.01400
C451        C  0.80690197  0.34986139  0.82619561    -0.14700
C452        C  0.80784467  0.35054777  0.87157026    -0.12400
C453        C  0.83110706  0.34777093  0.89308954     0.00900
C454        C  0.85374025  0.34437053  0.86802023    -0.24600
H455        H  0.78890114  0.35134501  0.66797574     0.08900
H456        H  0.78762333  0.34691784  0.74524393     0.12500
H457        H  0.87137497  0.34824009  0.66568881     0.11200
H458        H  0.89409789  0.34241966  0.73406905     0.12400
H459        H  0.89425282  0.34052039  0.81365240     0.11400
H460        H  0.78827765  0.35271301  0.81245824     0.08500
H461        H  0.79012923  0.35359683  0.88994520     0.11800
H462        H  0.87194719  0.34283538  0.88426779     0.13600
C463        C  0.85826150  0.35362489  0.39037218    -0.01900
C464        C  0.84276559  0.33541040  0.37008552    -0.09900
C465        C  0.84505715  0.33115353  0.32491790    -0.18700
C466        C  0.86304023  0.34509051  0.29888605     0.03700
C467        C  0.87972820  0.36224564  0.32054520     0.17900
C468        C  0.87721214  0.36625694  0.36552669    -0.20100
C469        C  0.89836851  0.37610005  0.29711277    -0.21400
C470        C  0.90026115  0.37409944  0.25212123    -0.19900
C471        C  0.88335103  0.35845600  0.22943153     0.19300
C472        C  0.86466441  0.34340494  0.25222890     0.01400
C473        C  0.84782736  0.32837199  0.22705258    -0.14700
C474        C  0.84867468  0.32946857  0.18126348    -0.12400
C475        C  0.86647877  0.34528853  0.15936603     0.00900
C476        C  0.88431679  0.35888880  0.18379834    -0.24600
H477        H  0.82815667  0.32521670  0.38881013     0.08900
H478        H  0.83220272  0.31728848  0.31114133     0.12500
H479        H  0.88968762  0.37998318  0.38114009     0.11200
H480        H  0.91124594  0.38901840  0.31363011     0.12400
H481        H  0.91456003  0.38553897  0.23480750     0.11400
H482        H  0.83315959  0.31643619  0.24184468     0.08500
H483        H  0.83453551  0.31893395  0.16308522     0.11800
H484        H  0.89826087  0.37111453  0.16718597     0.13600
C485        C  0.20779273  0.56749358  0.81961255    -0.01900
C486        C  0.21364853  0.54625514  0.79317402    -0.09900
C487        C  0.21577458  0.52178671  0.81133082    -0.18700
C488        C  0.21235033  0.51801507  0.85673577     0.03700
C489        C  0.21016642  0.54015315  0.88378179     0.17900
C490        C  0.20746737  0.56459963  0.86501734    -0.20100
C491        C  0.20884902  0.53755464  0.92920982    -0.21400
C492        C  0.20796407  0.51334787  0.94827284    -0.19900
C493        C  0.20717548  0.49128066  0.92223406     0.19300
C494        C  0.20946407  0.49319757  0.87605131     0.01400
C495        C  0.20629247  0.47051076  0.85115215    -0.14700
C496        C  0.19933673  0.44733271  0.87131172    -0.12400
C497        C  0.19685646  0.44583102  0.91673227     0.00900
C498        C  0.20199030  0.46755013  0.94202221    -0.24600
H499        H  0.21417558  0.54813071  0.75793338     0.08900
H500        H  0.21917631  0.50609227  0.78899502     0.12500
H501        H  0.20326706  0.58109102  0.88556809     0.11200
H502        H  0.20770721  0.55433791  0.95007136     0.12400
H503        H  0.20621149  0.51195763  0.98351910     0.11400
H504        H  0.20719888  0.47051355  0.81596933     0.08500
H505        H  0.19507357  0.43076991  0.85135665     0.11800
H506        H  0.19935513  0.46655680  0.97721806     0.13600
C507        C  0.18624452  0.43364622  0.57742671    -0.01900
C508        C  0.18120569  0.43360563  0.62250252    -0.09900
C509        C  0.18062356  0.45651189  0.64610306    -0.18700
C510        C  0.18445341  0.48037988  0.62490775     0.03700
C511        C  0.19211243  0.48003743  0.58005990     0.17900
C512        C  0.19341758  0.45670234  0.55699534    -0.20100
C513        C  0.19651161  0.50310553  0.55767864    -0.21400
C514        C  0.19218331  0.52657232  0.57821342    -0.19900
C515        C  0.18317096  0.52756570  0.62154443     0.19300
C516        C  0.17962236  0.50450548  0.64582934     0.01400
C517        C  0.17035392  0.50659827  0.68940008    -0.14700
C518        C  0.16441050  0.53047120  0.70767037    -0.12400
C519        C  0.16773256  0.55315823  0.68355044     0.00900
C520        C  0.17739252  0.55152185  0.64056880    -0.24600
H521        H  0.17572763  0.41595747  0.63897119     0.08900
H522        H  0.17572649  0.45496227  0.68033319     0.12500
H523        H  0.19710903  0.45692297  0.52201749     0.11200
H524        H  0.20253609  0.50300351  0.52360261     0.12400
H525        H  0.19520640  0.54407323  0.55965104     0.11400
H526        H  0.16734350  0.49016094  0.71023391     0.08500
H527        H  0.15779526  0.53116373  0.74140892     0.11800
H528        H  0.18051859  0.56896350  0.62185500     0.13600
C529        C  0.12636427  0.67596844  0.11632582    -0.01900
C530        C  0.10497889  0.66800223  0.09312096    -0.09900
C531        C  0.10574837  0.66698575  0.04777742    -0.18700
C532        C  0.12830541  0.67347252  0.02397123     0.03700
C533        C  0.14918832  0.68384579  0.04731720     0.17900
C534        C  0.14803666  0.68507541  0.09330790    -0.20100
C535        C  0.17144317  0.69172095  0.02467346    -0.21400
C536        C  0.17366658  0.68880592  0.97950020    -0.19900
C537        C  0.15401757  0.67720634  0.95602973     0.19300
C538        C  0.13109868  0.66925143  0.97810465     0.01400
C539        C  0.11246828  0.65613365  0.95378568    -0.14700
C540        C  0.11654326  0.65084099  0.90970425    -0.12400
C541        C  0.13894066  0.65887588  0.88794619     0.00900
C542        C  0.15746835  0.67253580  0.91095021    -0.24600
H543        H  0.08791301  0.66125092  0.11034178     0.08900
H544        H  0.08854406  0.66041704  0.03245239     0.12500
H545        H  0.16468801  0.69121029  0.11117751     0.11200
H546        H  0.18738157  0.69986217  0.04209037     0.12400
H547        H  0.19123156  0.69487107  0.96302259     0.11400
H548        H  0.09492667  0.64879294  0.96814654     0.08500
H549        H  0.10209368  0.64013956  0.89246908     0.11800
H550        H  0.17508655  0.67833080  0.89428506     0.13600
C551        C  0.16176642  0.66489388  0.61695246    -0.01900
C552        C  0.13778332  0.66988722  0.59874973    -0.09900
C553        C  0.13543606  0.67346504  0.55351787    -0.18700
C554        C  0.15714643  0.67211290  0.52498651     0.03700
C555        C  0.18147235  0.66822862  0.54413318     0.17900
C556        C  0.18351199  0.66477102  0.58934576    -0.20100
C557        C  0.20372035  0.66694915  0.51798333    -0.21400
C558        C  0.20234619  0.66824554  0.47290952    -0.19900
C559        C  0.17869005  0.67091025  0.45276127     0.19300
C560        C  0.15572865  0.67354869  0.47825131     0.01400
C561        C  0.13248598  0.67663699  0.45559056    -0.14700
C562        C  0.13204489  0.67567425  0.40973536    -0.12400
C563        C  0.15468025  0.67163582  0.38515350     0.00900
C564        C  0.17794314  0.67005114  0.40707154    -0.24600
H565        H  0.12064810  0.67020776  0.61933868     0.08900
H566        H  0.11637316  0.67665832  0.54167852     0.12500
H567        H  0.20221754  0.66126576  0.60299065     0.11200
H568        H  0.22231874  0.66425597  0.53246697     0.12400
H569        H  0.21991688  0.66651168  0.45358657     0.11400
H570        H  0.11432140  0.67921119  0.47248647     0.08500
H571        H  0.11382574  0.67714372  0.39359289     0.11800
H572        H  0.19566752  0.66737510  0.38844594     0.13600
C573        C  0.14114668  0.45098325  0.43024226    -0.01900
C574        C  0.13986196  0.47407008  0.45343686    -0.09900
C575        C  0.13901485  0.49743169  0.43147315    -0.18700
C576        C  0.13918256  0.49833271  0.38535552     0.03700
C577        C  0.13845310  0.47473899  0.36210811     0.17900
C578        C  0.13999911  0.45133155  0.38463272    -0.20100
C579        C  0.13648808  0.47472133  0.31660094    -0.21400
C580        C  0.13569544  0.49773129  0.29357301    -0.19900
C581        C  0.13793704  0.52121729  0.31537938     0.19300
C582        C  0.14018098  0.52179842  0.36155176     0.01400
C583        C  0.14444993  0.54573975  0.38180767    -0.14700
C584        C  0.14618409  0.56816963  0.35728300    -0.12400
C585        C  0.14326318  0.56759611  0.31203763     0.00900
C586        C  0.13883941  0.54412160  0.29122038    -0.24600
H587        H  0.14037674  0.47411414  0.48878549     0.08900
H588        H  0.13808462  0.51442168  0.45151163     0.12500
H589        H  0.14034882  0.43336573  0.36672297     0.11200
H590        H  0.13554799  0.45680351  0.29872190     0.12400
H591        H  0.13414076  0.49712877  0.25835595     0.11400
H592        H  0.14746849  0.54768106  0.41633437     0.08500
H593        H  0.14995056  0.58611112  0.37386009     0.11800
H594        H  0.13723937  0.54355299  0.25598186     0.13600
C595        C  0.18127677  0.58179998  0.15931353    -0.01900
C596        C  0.17505442  0.58136957  0.11498320    -0.09900
C597        C  0.17112231  0.55814966  0.09316788    -0.18700
C598        C  0.17279554  0.53439844  0.11537656     0.03700
C599        C  0.18100557  0.53485536  0.15938340     0.17900
C600        C  0.18543580  0.55838828  0.18066426    -0.20100
C601        C  0.18348413  0.51187013  0.18263505    -0.21400
C602        C  0.17800226  0.48840720  0.16322009    -0.19900
C603        C  0.16936040  0.48729277  0.12030111     0.19300
C604        C  0.16622915  0.51029545  0.09591287     0.01400
C605        C  0.15624781  0.50813096  0.05346342    -0.14700
C606        C  0.15072281  0.48412386  0.03544555    -0.12400
C607        C  0.15509511  0.46139334  0.05876457     0.00900
C608        C  0.16406393  0.46322733  0.10151613    -0.24600
H609        H  0.17147243  0.59919211  0.09786721     0.08900
H610        H  0.16590277  0.55946406  0.05939332     0.12500
H611        H  0.18966386  0.55846176  0.21518192     0.11200
H612        H  0.18958387  0.51204015  0.21623921     0.12400
H613        H  0.18027608  0.47099131  0.18213303     0.11400
H614        H  0.15264381  0.52462602  0.03324650     0.08500
H615        H  0.14397332  0.48335873  0.00226798     0.11800
H616        H  0.16742525  0.44582471  0.11998655     0.13600
C617        C  0.84358409  0.45119059  0.96030636    -0.01900
C618        C  0.85350580  0.47304802  0.98057679    -0.09900
C619        C  0.85507513  0.49643776  0.95861455    -0.18700
C620        C  0.84702819  0.49874716  0.91508511     0.03700
C621        C  0.83811802  0.47628900  0.89378933     0.17900
C622        C  0.83590333  0.45293904  0.91677637    -0.20100
C623        C  0.83184374  0.47725997  0.84958600    -0.21400
C624        C  0.83478583  0.49993566  0.82589127    -0.19900
C625        C  0.84279914  0.52249947  0.84638713     0.19300
C626        C  0.84805949  0.52244119  0.89170544     0.01400
C627        C  0.85350627  0.54621280  0.91191015    -0.14700
C628        C  0.85440660  0.56894054  0.88775645    -0.12400
C629        C  0.85072398  0.56855923  0.84274325     0.00900
C630        C  0.84501181  0.54531460  0.82212224    -0.24600
H631        H  0.85981143  0.47221564  0.01401542     0.08900
H632        H  0.86322542  0.51225129  0.97626776     0.12500
H633        H  0.82859248  0.43603535  0.90055862     0.11200
H634        H  0.82515788  0.46023302  0.83298508     0.12400
H635        H  0.83033708  0.49993339  0.79149702     0.11400
H636        H  0.85628360  0.54796835  0.94654090     0.08500
H637        H  0.85808052  0.58691975  0.90428217     0.11800
H638        H  0.84118535  0.54522639  0.78745687     0.13600
C639        C  0.93873531  0.64761186  0.78449944    -0.01900
C640        C  0.95043209  0.62411974  0.79459433    -0.09900
C641        C  0.97695892  0.62095658  0.79103265    -0.18700
C642        C  0.99299897  0.64128020  0.77690629     0.03700
C643        C  0.98133817  0.66555510  0.76912585     0.17900
C644        C  0.95445891  0.66852637  0.77302745    -0.20100
C645        C  0.99652922  0.68650463  0.75629364    -0.21400
C646        C  0.02294336  0.68381246  0.75044723    -0.19900
C647        C  0.03486603  0.66002100  0.75673278     0.19300
C648        C  0.02009622  0.63833806  0.76986029     0.01400
C649        C  0.03309211  0.61462653  0.77477285    -0.14700
C650        C  0.05965335  0.61274649  0.76805318    -0.12400
C651        C  0.07421773  0.63435253  0.75638891     0.00900
C652        C  0.06156562  0.65787199  0.75031420    -0.24600
H653        H  0.93889474  0.60765522  0.80400638     0.08900
H654        H  0.98425685  0.60219885  0.79892966     0.12500
H655        H  0.94572537  0.68680170  0.76511178     0.11200
H656        H  0.98789823  0.70510177  0.75048492     0.12400
H657        H  0.03411348  0.70044129  0.74052138     0.11400
H658        H  0.02331179  0.59716916  0.78397058     0.08500
H659        H  0.06892606  0.59442703  0.77341260     0.11800
H660        H  0.07261498  0.67475981  0.74126716     0.13600
C661        C  0.81369054  0.58258272  0.69052292    -0.01900
C662        C  0.82077512  0.58154980  0.64625620    -0.09900
C663        C  0.82143701  0.55824079  0.62410687    -0.18700
C664        C  0.81544857  0.53507840  0.64600797     0.03700
C665        C  0.80489750  0.53662151  0.68907963     0.17900
C666        C  0.80403972  0.56037792  0.71099534    -0.20100
C667        C  0.79685728  0.51424337  0.71074394    -0.21400
C668        C  0.80017719  0.49027483  0.69118181    -0.19900
C669        C  0.81255456  0.48807369  0.65028722     0.19300
C670        C  0.82046443  0.51049339  0.62726197     0.01400
C671        C  0.83432890  0.50737085  0.58749893    -0.14700
C672        C  0.83953175  0.48306222  0.57067366    -0.12400
C673        C  0.83093776  0.46096649  0.59247010     0.00900
C674        C  0.81746959  0.46361647  0.63245943    -0.24600
H675        H  0.82771492  0.59860544  0.62953263     0.08900
H676        H  0.82762110  0.55886640  0.59032729     0.12500
H677        H  0.79831057  0.56105629  0.74521543     0.11200
H678        H  0.78841253  0.51524286  0.74332885     0.12400
H679        H  0.79394491  0.47329295  0.70889423     0.11400
H680        H  0.84185604  0.52334731  0.56891040     0.08500
H681        H  0.84977744  0.48165618  0.53964392     0.11800
H682        H  0.81062779  0.44665436  0.64961534     0.13600
C683        C  0.79451293  0.57270060  0.35498435    -0.01900
C684        C  0.79465329  0.57079827  0.40061397    -0.09900
C685        C  0.79120340  0.54701861  0.42152866    -0.18700
C686        C  0.78886326  0.52402806  0.39719978     0.03700
C687        C  0.78914659  0.52604937  0.35090961     0.17900
C688        C  0.79087323  0.55026691  0.33048278    -0.20100
C689        C  0.78947392  0.50379259  0.32520750    -0.21400
C690        C  0.79092684  0.47958837  0.34441337    -0.19900
C691        C  0.79059773  0.47690203  0.38991086     0.19300
C692        C  0.78809190  0.49902375  0.41692679     0.01400
C693        C  0.78556856  0.49510696  0.46249699    -0.14700
C694        C  0.78768348  0.47050858  0.48059214    -0.12400
C695        C  0.79290902  0.44908498  0.45412835     0.00900
C696        C  0.79370080  0.45234784  0.40864749    -0.24600
H697        H  0.79838332  0.58767469  0.42013341     0.08900
H698        H  0.79217120  0.54695785  0.45666123     0.12500
H699        H  0.79192485  0.55137493  0.29512686     0.11200
H700        H  0.78984355  0.50515229  0.28989775     0.12400
H701        H  0.79246453  0.46285549  0.32349709     0.11400
H702        H  0.78228967  0.51078663  0.48492839     0.08500
H703        H  0.78713968  0.46854740  0.51581824     0.11800
H704        H  0.79768003  0.43589050  0.38791101     0.13600
C705        C  0.92337127  0.64119120  0.26262720    -0.01900
C706        C  0.93508531  0.66462737  0.25174730    -0.09900
C707        C  0.96176496  0.66692075  0.24925744    -0.18700
C708        C  0.97784559  0.64577389  0.25817970     0.03700
C709        C  0.96589394  0.62180972  0.26793308     0.17900
C710        C  0.93895496  0.61968817  0.26969211    -0.20100
C711        C  0.98089767  0.60023448  0.27694609    -0.21400
C712        C  0.00750741  0.60196570  0.27708901    -0.19900
C713        C  0.01985109  0.62532704  0.26825302     0.19300
C714        C  0.00527181  0.64758374  0.25845129     0.01400
C715        C  0.01883503  0.67066409  0.24976798    -0.14700
C716        C  0.04566143  0.67150317  0.25058219    -0.12400
C717        C  0.05993650  0.64945669  0.25992053     0.00900
C718        C  0.04677899  0.62645691  0.26891187    -0.24600
H719        H  0.92352902  0.68151942  0.24582954     0.08900
H720        H  0.96919148  0.68564702  0.24104164     0.12500
H721        H  0.93013659  0.60147660  0.27832479     0.11200
H722        H  0.97197473  0.58190597  0.28435108     0.12400
H723        H  0.01852422  0.58490254  0.28441774     0.11400
H724        H  0.00929748  0.68837581  0.24192051     0.08500
H725        H  0.05528849  0.68939664  0.24274945     0.11800
H726        H  0.05756052  0.60916966  0.27584151     0.13600
C727        C  0.87550109  0.67347115  0.63912033    -0.01900
C728        C  0.89538488  0.66248851  0.61407951    -0.09900
C729        C  0.89526624  0.66340344  0.56863965    -0.18700
C730        C  0.87476919  0.67494174  0.54634105     0.03700
C731        C  0.85552718  0.68774676  0.57171636     0.17900
C732        C  0.85616106  0.68711864  0.61779936    -0.20100
C733        C  0.83516652  0.69996429  0.55090866    -0.21400
C734        C  0.83284708  0.69867481  0.50565469    -0.19900
C735        C  0.85066349  0.68489462  0.48001415     0.19300
C736        C  0.87213450  0.67320990  0.50003006     0.01400
C737        C  0.88936954  0.65910966  0.47312446    -0.14700
C738        C  0.88477239  0.65556425  0.42896256    -0.12400
C739        C  0.86317252  0.66623089  0.40948273     0.00900
C740        C  0.84657852  0.68167194  0.43484490    -0.24600
H741        H  0.91075084  0.65222395  0.62977849     0.08900
H742        H  0.91115327  0.65416401  0.55203566     0.12500
H743        H  0.84066701  0.69569260  0.63693080     0.11200
H744        H  0.82054798  0.71002217  0.56987359     0.12400
H745        H  0.81651822  0.70780607  0.49077975     0.11400
H746        H  0.90615908  0.64973617  0.48537147     0.08500
H747        H  0.89802230  0.64377439  0.41000089     0.11800
H748        H  0.82972186  0.68986511  0.42007963     0.13600
C749        C  0.83324368  0.66809093  0.14116665    -0.01900
C750        C  0.81067874  0.67034678  0.11745828    -0.09900
C751        C  0.81150500  0.67366651  0.07224360    -0.18700
C752        C  0.83512728  0.67439455  0.04870015     0.03700
C753        C  0.85805263  0.67255484  0.07287226     0.17900
C754        C  0.85693503  0.66977871  0.11872392    -0.20100
C755        C  0.88190863  0.67274093  0.05096416    -0.21400
C756        C  0.88350341  0.67400363  0.00551970    -0.19900
C757        C  0.86129071  0.67530941  0.98067651     0.19300
C758        C  0.83678522  0.67601575  0.00202646     0.01400
C759        C  0.81494726  0.67758983  0.97562101    -0.14700
C760        C  0.81723348  0.67691404  0.93021540    -0.12400
C761        C  0.84127202  0.67506205  0.90913556     0.00900
C762        C  0.86334766  0.67504742  0.93458503    -0.24600
H763        H  0.79213469  0.66927358  0.13397840     0.08900
H764        H  0.79323686  0.67500254  0.05665627     0.12500
H765        H  0.87451465  0.66784535  0.13672667     0.11200
H766        H  0.89948664  0.67138120  0.06907961     0.12400
H767        H  0.90226644  0.67355532  0.98965147     0.11400
H768        H  0.79571851  0.67880685  0.98896365     0.08500
H769        H  0.79987966  0.67724630  0.91138277     0.11800
H770        H  0.88204065  0.67349113  0.91863550     0.13600
C771        C  0.83181128  0.55916989  0.21055886    -0.01900
C772        C  0.82106695  0.55799329  0.16907841    -0.09900
C773        C  0.81517848  0.53442809  0.15014647    -0.18700
C774        C  0.81971743  0.51113291  0.17240755     0.03700
C775        C  0.83165220  0.51241131  0.21367282     0.17900
C776        C  0.83751183  0.53625053  0.23228750    -0.20100
C777        C  0.83749300  0.48989097  0.23632581    -0.21400
C778        C  0.83243215  0.46602050  0.21826063    -0.19900
C779        C  0.82088814  0.46412589  0.17757271     0.19300
C780        C  0.81349837  0.48661004  0.15473306     0.01400
C781        C  0.80072766  0.48348080  0.11476842    -0.14700
C782        C  0.79825489  0.45923162  0.09586128    -0.12400
C783        C  0.80827273  0.43750350  0.11631774     0.00900
C784        C  0.81805292  0.43989757  0.15839066    -0.24600
H785        H  0.81657277  0.57543826  0.15152400     0.08900
H786        H  0.80706292  0.53509337  0.11811655     0.12500
H787        H  0.84567386  0.53693435  0.26453050     0.11200
H788        H  0.84644721  0.49074025  0.26789805     0.12400
H789        H  0.83790247  0.44891404  0.23598088     0.11400
H790        H  0.79334601  0.49946944  0.09653948     0.08500
H791        H  0.79058506  0.45785872  0.06335442     0.11800
H792        H  0.82560557  0.42306210  0.17460416     0.13600
C793        C  0.76873535  0.32365107  0.52599610    -0.01900
C794        C  0.74368664  0.33052372  0.53856719    -0.09900
C795        C  0.72541090  0.31165790  0.54905621    -0.18700
C796        C  0.73177857  0.28519475  0.54759571     0.03700
C797        C  0.75686752  0.27842466  0.53266155     0.17900
C798        C  0.77481999  0.29752204  0.52162182    -0.20100
C799        C  0.76438082  0.25264171  0.53069615    -0.21400
C800        C  0.74786620  0.23335470  0.54499084    -0.19900
C801        C  0.72331724  0.23933070  0.56118939     0.19300
C802        C  0.71461499  0.26525085  0.56178161     0.01400
C803        C  0.68933741  0.27001066  0.57740279    -0.14700
C804        C  0.67373613  0.24999601  0.59284453    -0.12400
C805        C  0.68279483  0.22464946  0.59362691     0.00900
C806        C  0.70753960  0.21946857  0.57729932    -0.24600
H807        H  0.73855540  0.35055664  0.54258684     0.08900
H808        H  0.70678814  0.31841313  0.55974307     0.12500
H809        H  0.79413510  0.29196633  0.51176889     0.11200
H810        H  0.78344652  0.24738748  0.51909314     0.12400
H811        H  0.75449880  0.21362802  0.54396333     0.11400
H812        H  0.68110513  0.28898966  0.57827245     0.08500
H813        H  0.65458119  0.25448052  0.60491564     0.11800
H814        H  0.71455909  0.19985793  0.57701925     0.13600
C815        C  0.67984786  0.22661066  0.12446850    -0.01900
C816        C  0.67357775  0.25279314  0.12686009    -0.09900
C817        C  0.69199811  0.27173684  0.11658421    -0.18700
C818        C  0.71726693  0.26500515  0.10274139     0.03700
C819        C  0.72345901  0.23844059  0.10108985     0.17900
C820        C  0.70509217  0.21982267  0.11248440    -0.20100
C821        C  0.74780300  0.23036044  0.08679783    -0.21400
C822        C  0.76620723  0.24806189  0.07344392    -0.19900
C823        C  0.76089218  0.27436988  0.07442999     0.19300
C824        C  0.73649782  0.28338117  0.08953407     0.01400
C825        C  0.73254608  0.31028964  0.09026421    -0.14700
C826        C  0.75182802  0.32733721  0.07590479    -0.12400
C827        C  0.77565372  0.31822324  0.06025037     0.00900
C828        C  0.77995903  0.29164673  0.06002723    -0.24600
H829        H  0.65421283  0.25866173  0.13556708     0.08900
H830        H  0.68575856  0.29144747  0.11860548     0.12500
H831        H  0.71034464  0.19971610  0.11007014     0.11200
H832        H  0.75255656  0.21010766  0.08532743     0.12400
H833        H  0.78475884  0.24107969  0.06207177     0.11400
H834        H  0.71474452  0.31868378  0.10173423     0.08500
H835        H  0.74797218  0.34776932  0.07683302     0.11800
H836        H  0.79830572  0.28424490  0.04841443     0.13600
C837        C  0.65152381  0.16553500  0.99252235    -0.01900
C838        C  0.65719266  0.14241867  0.97105196    -0.09900
C839        C  0.66111293  0.14184088  0.92566351    -0.18700
C840        C  0.65945326  0.16452744  0.90029608     0.03700
C841        C  0.65496694  0.18804997  0.92272625     0.17900
C842        C  0.65111736  0.18832238  0.96814095    -0.20100
C843        C  0.65357082  0.21117723  0.89965276    -0.21400
C844        C  0.65540307  0.21140739  0.85441306    -0.19900
C845        C  0.65861652  0.18850879  0.83111376     0.19300
C846        C  0.66125696  0.16475635  0.85357223     0.01400
C847        C  0.66465416  0.14228015  0.82811606    -0.14700
C848        C  0.66415352  0.14327396  0.78247277    -0.12400
C849        C  0.66029333  0.16660717  0.76075963     0.00900
C850        C  0.65822682  0.18920550  0.78534908    -0.24600
H851        H  0.65782054  0.12458302  0.98920365     0.08900
H852        H  0.66491056  0.12330450  0.91129988     0.12500
H853        H  0.64717657  0.20641918  0.98447522     0.11200
H854        H  0.65043719  0.22918803  0.91667877     0.12400
H855        H  0.65363061  0.22958004  0.83747117     0.11400
H856        H  0.66703110  0.12357253  0.84252265     0.08500
H857        H  0.66570888  0.12551716  0.76419698     0.11800
H858        H  0.65540811  0.20738677  0.76883576     0.13600
C859        C  0.65626713  0.13175555  0.49300257    -0.01900
C860        C  0.67292593  0.14850244  0.47047078    -0.09900
C861        C  0.67412579  0.14868241  0.42462940    -0.18700
C862        C  0.65848109  0.13211203  0.39995611     0.03700
C863        C  0.64292239  0.11412261  0.42330171     0.17900
C864        C  0.64208568  0.11404436  0.46903426    -0.20100
C865        C  0.62734809  0.09691537  0.40102772    -0.21400
C866        C  0.62591923  0.09785689  0.35595494    -0.19900
C867        C  0.63989774  0.11614301  0.33203320     0.19300
C868        C  0.65682935  0.13324666  0.35330053     0.01400
C869        C  0.67040887  0.15128980  0.32697398    -0.14700
C870        C  0.66622965  0.15304827  0.28192232    -0.12400
C871        C  0.64850355  0.13690019  0.26187886     0.00900
C872        C  0.63609653  0.11800985  0.28703175    -0.24600
H873        H  0.68416593  0.16234142  0.48823045     0.08900
H874        H  0.68685650  0.16247913  0.40940531     0.12500
H875        H  0.62934899  0.10077657  0.48606798     0.11200
H876        H  0.61564205  0.08302917  0.41870210     0.12400
H877        H  0.61315954  0.08466270  0.33979022     0.11400
H878        H  0.68376187  0.16475747  0.34049878     0.08500
H879        H  0.67608480  0.16778665  0.26310258     0.11800
H880        H  0.62260212  0.10518008  0.27171175     0.13600
C881        C  0.68832482  0.78686981  0.67530841    -0.01900
C882        C  0.68155412  0.76131303  0.68409403    -0.09900
C883        C  0.69958138  0.74387859  0.70025404    -0.18700
C884        C  0.72514247  0.75150258  0.70834647     0.03700
C885        C  0.73165361  0.77762687  0.70055146     0.17900
C886        C  0.71342497  0.79484033  0.68417647    -0.20100
C887        C  0.75642554  0.78647913  0.70879986    -0.21400
C888        C  0.77514599  0.76984108  0.72378472    -0.19900
C889        C  0.76967863  0.74383714  0.73066098     0.19300
C890        C  0.74457202  0.73424911  0.72335740     0.01400
C891        C  0.74025920  0.70774920  0.73060754    -0.14700
C892        C  0.76011993  0.69148586  0.74355142    -0.12400
C893        C  0.78491357  0.70098082  0.75019921     0.00900
C894        C  0.78938416  0.72731552  0.74417026    -0.24600
H895        H  0.66225351  0.75468463  0.67821898     0.08900
H896        H  0.69295385  0.72455531  0.70601008     0.12500
H897        H  0.71890635  0.81464702  0.67833923     0.11200
H898        H  0.76144669  0.80642751  0.70325829     0.12400
H899        H  0.79417532  0.77731905  0.72944903     0.11400
H900        H  0.72182652  0.69894863  0.72598649     0.08500
H901        H  0.75599133  0.67128185  0.74829626     0.11800
H902        H  0.80842096  0.73496347  0.74921781     0.13600
C903        C  0.62986392  0.93594653  0.65367463    -0.01900
C904        C  0.60696955  0.94994079  0.65676908    -0.09900
C905        C  0.60731002  0.97672174  0.65861304    -0.18700
C906        C  0.63071499  0.99045785  0.65702291     0.03700
C907        C  0.65383262  0.97623352  0.65207474     0.17900
C908        C  0.65323923  0.94928368  0.65120432    -0.20100
C909        C  0.67735860  0.98900709  0.64741728    -0.21400
C910        C  0.67832500  0.01570087  0.64604624    -0.19900
C911        C  0.65589811  0.03026594  0.65112454     0.19300
C912        C  0.63193654  0.01781315  0.65858538     0.01400
C913        C  0.61018273  0.03329197  0.66704083    -0.14700
C914        C  0.61168729  0.05992194  0.66397735    -0.12400
C915        C  0.63484414  0.07208815  0.65245219     0.00900
C916        C  0.65713198  0.05719279  0.64772077    -0.24600
H917        H  0.58866260  0.94014380  0.65848348     0.08900
H918        H  0.58891060  0.98614720  0.66044264     0.12500
H919        H  0.67109535  0.93866705  0.64834698     0.11200
H920        H  0.69507586  0.97826501  0.64359491     0.12400
H921        H  0.69672005  0.02500734  0.64092421     0.11400
H922        H  0.59169532  0.02537321  0.67581026     0.08500
H923        H  0.59428887  0.07098491  0.66918557     0.11800
H924        H  0.67524752  0.06642351  0.63968717     0.13600
C925        C  0.68505136  0.78880130  0.17958502    -0.01900
C926        C  0.70885670  0.79720036  0.19468585    -0.09900
C927        C  0.72588136  0.78017269  0.21442249    -0.18700
C928        C  0.71979999  0.75384621  0.21952794     0.03700
C929        C  0.69607986  0.74520041  0.20277951     0.17900
C930        C  0.67891453  0.76265111  0.18361603    -0.20100
C931        C  0.68966467  0.71912217  0.20506877    -0.21400
C932        C  0.70636978  0.70136367  0.22316158    -0.19900
C933        C  0.72974362  0.70922199  0.24040007     0.19300
C934        C  0.73656627  0.73567906  0.23971442     0.01400
C935        C  0.75998282  0.74267398  0.25889642    -0.14700
C936        C  0.77671849  0.72403996  0.27487689    -0.12400
C937        C  0.77073404  0.69778453  0.27285818     0.00900
C938        C  0.74672062  0.69063934  0.25696254    -0.24600
H939        H  0.71425718  0.81722539  0.19191476     0.08900
H940        H  0.74375683  0.78816191  0.22503817     0.12500
H941        H  0.66073397  0.75579710  0.17166904     0.11200
H942        H  0.67170138  0.71232719  0.19219613     0.12400
H943        H  0.70097007  0.68126956  0.22356674     0.11400
H944        H  0.76614788  0.76236623  0.26122521     0.08500
H945        H  0.79503745  0.73019326  0.28720042     0.11800
H946        H  0.74188084  0.67043593  0.25486681     0.13600
C947        C  0.62307237  0.93691771  0.14205147    -0.01900
C948        C  0.59953905  0.94958025  0.13740010    -0.09900
C949        C  0.59850491  0.97616241  0.13082134    -0.18700
C950        C  0.62112512  0.99117136  0.12881385     0.03700
C951        C  0.64495159  0.97823941  0.13335116     0.17900
C952        C  0.64571603  0.95145953  0.13956122    -0.20100
C953        C  0.66790644  0.99217118  0.13250679    -0.21400
C954        C  0.66771920  0.01878856  0.12854726    -0.19900
C955        C  0.64459444  0.03219583  0.12471013     0.19300
C956        C  0.62098536  0.01855629  0.12370653     0.01400
C957        C  0.59829171  0.03302570  0.11839689    -0.14700
C958        C  0.59887177  0.05987445  0.11689203    -0.12400
C959        C  0.62201953  0.07334687  0.12034006     0.00900
C960        C  0.64490801  0.05924312  0.12302083    -0.24600
H961        H  0.58171987  0.93892852  0.13928338     0.08900
H962        H  0.57966312  0.98445012  0.12816575     0.12500
H963        H  0.66407042  0.94197722  0.14314731     0.11200
H964        H  0.68614685  0.98244643  0.13579645     0.12400
H965        H  0.68581707  0.02900008  0.12898555     0.11400
H966        H  0.57970434  0.02417296  0.11595832     0.08500
H967        H  0.58091530  0.07015907  0.11423167     0.11800
H968        H  0.66300815  0.06934106  0.12535026     0.13600
C969        C  0.65983208  0.85379150  0.01826414    -0.01900
C970        C  0.67242743  0.83543511  0.99237769    -0.09900
C971        C  0.67333713  0.83794927  0.94697521    -0.18700
C972        C  0.66063303  0.85847980  0.92615235     0.03700
C973        C  0.64789673  0.87701661  0.95297848     0.17900
C974        C  0.64829435  0.87491627  0.99855607    -0.20100
C975        C  0.63370884  0.89680686  0.93423729    -0.21400
C976        C  0.63108386  0.89812458  0.88931643    -0.19900
C977        C  0.64325087  0.88015809  0.86201639     0.19300
C978        C  0.65895660  0.86060026  0.87982679     0.01400
C979        C  0.67184731  0.84378585  0.85045282    -0.14700
C980        C  0.66817037  0.84554673  0.80551953    -0.12400
C981        C  0.65141536  0.86387187  0.78862580     0.00900
C982        C  0.63936986  0.88137405  0.81694898    -0.24600
H983        H  0.68110072  0.81878726  0.00733419     0.08900
H984        H  0.68302376  0.82287497  0.92905088     0.12500
H985        H  0.63791901  0.88873353  0.01873127     0.11200
H986        H  0.62385911  0.91088357  0.95456018     0.12400
H987        H  0.61929799  0.91320786  0.87584159     0.11400
H988        H  0.68480762  0.82906424  0.86119130     0.08500
H989        H  0.67780130  0.83192976  0.78403445     0.11800
H990        H  0.62671068  0.89587185  0.80385982     0.13600
C991        C  0.64649041  0.86739148  0.28854895    -0.01900
C992        C  0.64034706  0.88847681  0.31498529    -0.09900
C993        C  0.64491532  0.88775089  0.35982789    -0.18700
C994        C  0.65490085  0.86537801  0.37963855     0.03700
C995        C  0.66091946  0.84405924  0.35223459     0.17900
C996        C  0.65731423  0.84553095  0.30712131    -0.20100
C997        C  0.66958514  0.82100434  0.37011493    -0.21400
C998        C  0.67148052  0.81821759  0.41496178    -0.19900
C999        C  0.66546168  0.83865558  0.44292094     0.19300
C1000       C  0.65800562  0.86285705  0.42571471     0.01400
C1001       C  0.65339125  0.88316291  0.45556357    -0.14700
C1002       C  0.65448055  0.87903574  0.50061087    -0.12400
C1003       C  0.65997674  0.85461318  0.51716389     0.00900
C1004       C  0.66607022  0.83471291  0.48815644    -0.24600
H1005       H  0.63194484  0.90552357  0.30088638     0.08900
H1006       H  0.63958092  0.90459586  0.37833130     0.12500
H1007       H  0.66171540  0.82906822  0.28655801     0.11200
H1008       H  0.67414870  0.80471287  0.34933463     0.12400
H1009       H  0.67742340  0.79982980  0.42791347     0.11400
H1010       H  0.64854597  0.90229317  0.44510921     0.08500
H1011       H  0.64972137  0.89470172  0.52259851     0.11800
H1012       H  0.67061477  0.81585191  0.50091136     0.13600
C1013       C  0.30351925  0.22324539  0.91893058    -0.01900
C1014       C  0.31270280  0.24840657  0.92286140    -0.09900
C1015       C  0.29604372  0.26871811  0.93226649    -0.18700
C1016       C  0.26946348  0.26449317  0.93844731     0.03700
C1017       C  0.26026358  0.23886001  0.93472495     0.17900
C1018       C  0.27722254  0.21864477  0.92476052    -0.20100
C1019       C  0.23420052  0.23349053  0.94122000    -0.21400
C1020       C  0.21703232  0.25299778  0.95175349    -0.19900
C1021       C  0.22547047  0.27838184  0.95559717     0.19300
C1022       C  0.25172260  0.28465796  0.94860521     0.01400
C1023       C  0.25895576  0.31080762  0.95220986    -0.14700
C1024       C  0.24088932  0.32976756  0.96305396    -0.12400
C1025       C  0.21517008  0.32326553  0.97069926     0.00900
C1026       C  0.20766627  0.29752488  0.96658386    -0.24600
H1027       H  0.33293609  0.25252258  0.91827292     0.08900
H1028       H  0.30461724  0.28746155  0.93474601     0.12500
H1029       H  0.26992579  0.19923327  0.92189850     0.11200
H1030       H  0.22706404  0.21402602  0.93846086     0.12400
H1031       H  0.19697882  0.24818447  0.95694937     0.11400
H1032       H  0.27839430  0.31724615  0.94684381     0.08500
H1033       H  0.24712126  0.34952406  0.96581965     0.11800
H1034       H  0.18774158  0.29222327  0.97198406     0.13600
C1035       C  0.43819106  0.15683305  0.82885916    -0.01900
C1036       C  0.46125964  0.15147661  0.84954878    -0.09900
C1037       C  0.48432505  0.15037383  0.82574543    -0.18700
C1038       C  0.48502828  0.15438451  0.78007969     0.03700
C1039       C  0.46136311  0.15848441  0.75889428     0.17900
C1040       C  0.43833007  0.16012796  0.78342622    -0.20100
C1041       C  0.46086674  0.16097095  0.71340686    -0.21400
C1042       C  0.48343531  0.15962679  0.68846094    -0.19900
C1043       C  0.50714004  0.15666487  0.70852514     0.19300
C1044       C  0.50832997  0.15446122  0.75471593     0.01400
C1045       C  0.53284334  0.15327093  0.77360274    -0.14700
C1046       C  0.55516731  0.15420109  0.74770103    -0.12400
C1047       C  0.55382989  0.15561260  0.70225998     0.00900
C1048       C  0.52976728  0.15656686  0.68277032    -0.24600
H1049       H  0.46158035  0.14863245  0.88457056     0.08900
H1050       H  0.50124671  0.14610077  0.84399386     0.12500
H1051       H  0.42044098  0.16379670  0.76708655     0.11200
H1052       H  0.44288162  0.16385568  0.69698315     0.12400
H1053       H  0.48239531  0.16149461  0.65329970     0.11400
H1054       H  0.53543513  0.15242136  0.80837100     0.08500
H1055       H  0.57362468  0.15373970  0.76328002     0.11800
H1056       H  0.52870382  0.15829186  0.64755892     0.13600
C1057       C  0.41869156  0.19551106  0.98666726    -0.01900
C1058       C  0.41995667  0.18536240  0.02897359    -0.09900
C1059       C  0.44354142  0.18201490  0.04864363    -0.18700
C1060       C  0.46646575  0.18877941  0.02622694     0.03700
C1061       C  0.46457907  0.20328025  0.98710862     0.17900
C1062       C  0.44064753  0.20673279  0.96778726    -0.20100
C1063       C  0.48675708  0.21240196  0.96584297    -0.21400
C1064       C  0.51084828  0.20635864  0.98156880    -0.19900
C1065       C  0.51327849  0.19019316  0.01779942     0.19300
C1066       C  0.49109042  0.18093110  0.04035934     0.01400
C1067       C  0.49444365  0.16317417  0.07467421    -0.14700
C1068       C  0.51889561  0.15619332  0.08783905    -0.12400
C1069       C  0.54076439  0.16665686  0.06735302     0.00900
C1070       C  0.53778048  0.18319688  0.03163728    -0.24600
H1071       H  0.40299272  0.17740259  0.04489779     0.08900
H1072       H  0.44336468  0.17302790  0.08038204     0.12500
H1073       H  0.43972759  0.21517097  0.93547939     0.11200
H1074       H  0.48547703  0.22383183  0.93639205     0.12400
H1075       H  0.52770395  0.21360279  0.96433006     0.11400
H1076       H  0.47852032  0.15428784  0.09185473     0.08500
H1077       H  0.52062794  0.14329608  0.11537128     0.11800
H1078       H  0.55455887  0.19131591  0.01532268     0.13600
C1079       C  0.21354867  0.31544611  0.48419694    -0.01900
C1080       C  0.20759199  0.28928367  0.48054806    -0.09900
C1081       C  0.22570329  0.27160382  0.46522957    -0.18700
C1082       C  0.25075256  0.27939201  0.45294016     0.03700
C1083       C  0.25762044  0.30541598  0.46032779     0.17900
C1084       C  0.23896844  0.32327653  0.47538597    -0.20100
C1085       C  0.28290768  0.31340297  0.45175610    -0.21400
C1086       C  0.30141531  0.29608458  0.43611921    -0.19900
C1087       C  0.29491158  0.27055556  0.42689632     0.19300
C1088       C  0.26924254  0.26214063  0.43405568     0.01400
C1089       C  0.26300326  0.23688983  0.42134090    -0.14700
C1090       C  0.28178974  0.22008197  0.40547898    -0.12400
C1091       C  0.30756921  0.22759186  0.40164361     0.00900
C1092       C  0.31389535  0.25321592  0.41124565    -0.24600
H1093       H  0.18836431  0.28245716  0.48790836     0.08900
H1094       H  0.21945936  0.25192426  0.46328177     0.12500
H1095       H  0.24398347  0.34338374  0.47839338     0.11200
H1096       H  0.28848058  0.33312816  0.45757495     0.12400
H1097       H  0.32087377  0.30280505  0.43063162     0.11400
H1098       H  0.24371570  0.22951298  0.42324995     0.08500
H1099       H  0.27612921  0.20062897  0.39768651     0.11800
H1100       H  0.33369724  0.25938670  0.40829280     0.13600
C1101       C  0.43188864  0.20736728  0.31119304    -0.01900
C1102       C  0.45315313  0.21515259  0.33515226    -0.09900
C1103       C  0.47747060  0.21737577  0.31515433    -0.18700
C1104       C  0.48123069  0.21211121  0.27017331     0.03700
C1105       C  0.45909719  0.20700878  0.24520756     0.17900
C1106       C  0.43486278  0.20427232  0.26589595    -0.20100
C1107       C  0.46148161  0.20340978  0.20003208    -0.21400
C1108       C  0.48546173  0.20390736  0.17928050    -0.19900
C1109       C  0.50779222  0.20681414  0.20341082     0.19300
C1110       C  0.50609723  0.21077776  0.24929652     0.01400
C1111       C  0.52934251  0.21137069  0.27251299    -0.14700
C1112       C  0.55305669  0.20692925  0.25124344    -0.12400
C1113       C  0.55449854  0.20326737  0.20600851     0.00900
C1114       C  0.53183027  0.20413127  0.18220870    -0.24600
H1115       H  0.45143595  0.21750686  0.37023356     0.08900
H1116       H  0.49310649  0.22260837  0.33584202     0.12500
H1117       H  0.41852351  0.19830949  0.24707424     0.11200
H1118       H  0.44470169  0.19984271  0.18065558     0.12400
H1119       H  0.48661010  0.20084125  0.14431792     0.11400
H1120       H  0.52961749  0.21359566  0.30749061     0.08500
H1121       H  0.57025361  0.20562864  0.27034236     0.11800
H1122       H  0.53273733  0.20041018  0.14738291     0.13600
C1123       C  0.34059411  0.16559467  0.52877187    -0.01900
C1124       C  0.33146678  0.14342417  0.54987715    -0.09900
C1125       C  0.32881358  0.14263202  0.59561019    -0.18700
C1126       C  0.33542088  0.16407460  0.62161136     0.03700
C1127       C  0.34406807  0.18659834  0.59965341     0.17900
C1128       C  0.34636753  0.18716765  0.55412702    -0.20100
C1129       C  0.35092696  0.20846216  0.62313688    -0.21400
C1130       C  0.34982544  0.20842882  0.66831491    -0.19900
C1131       C  0.34180695  0.18654024  0.69115982     0.19300
C1132       C  0.33426645  0.16404917  0.66841711     0.01400
C1133       C  0.32642505  0.14255034  0.69368280    -0.14700
C1134       C  0.32675587  0.14326193  0.73944779    -0.12400
C1135       C  0.33475776  0.16538973  0.76140333     0.00900
C1136       C  0.34185405  0.18701770  0.73683437    -0.24600
H1137       H  0.32677839  0.12651656  0.53109811     0.08900
H1138       H  0.32190484  0.12491508  0.60973304     0.12500
H1139       H  0.35329530  0.20457564  0.53843572     0.11200
H1140       H  0.35750166  0.22566998  0.60642317     0.12400
H1141       H  0.35557195  0.22559690  0.68553839     0.11400
H1142       H  0.32035000  0.12483013  0.67898483     0.08500
H1143       H  0.32128392  0.12621760  0.75764373     0.11800
H1144       H  0.34810316  0.20427483  0.75329691     0.13600
C1145       C  0.33106909  0.13060206  0.02932424    -0.01900
C1146       C  0.34223630  0.11028256  0.05198269    -0.09900
C1147       C  0.34140549  0.10945327  0.09732171    -0.18700
C1148       C  0.32968636  0.12934816  0.12192909     0.03700
C1149       C  0.31661269  0.14897595  0.09896437     0.17900
C1150       C  0.31726447  0.14936888  0.05287375    -0.20100
C1151       C  0.30409300  0.16866210  0.12221369    -0.21400
C1152       C  0.30535659  0.16995685  0.16760862    -0.19900
C1153       C  0.31948939  0.15181229  0.19085723     0.19300
C1154       C  0.33148217  0.13099490  0.16827501     0.01400
C1155       C  0.34598262  0.11342044  0.19274227    -0.14700
C1156       C  0.34962683  0.11711620  0.23703849    -0.12400
C1157       C  0.33874070  0.13814399  0.25896351     0.00900
C1158       C  0.32285024  0.15498532  0.23615799    -0.24600
H1159       H  0.35264516  0.09534956  0.03448354     0.08900
H1160       H  0.35080892  0.09328016  0.11196833     0.12500
H1161       H  0.30857961  0.16520148  0.03552689     0.11200
H1162       H  0.29379846  0.18354194  0.10508441     0.12400
H1163       H  0.29598274  0.18577930  0.18447962     0.11400
H1164       H  0.35566525  0.09709765  0.17848825     0.08500
H1165       H  0.36176831  0.10370843  0.25412110     0.11800
H1166       H  0.31451551  0.17140662  0.25295965     0.13600
C1167       C  0.44730767  0.16692239  0.45239475    -0.01900
C1168       C  0.46983224  0.16041973  0.42933966    -0.09900
C1169       C  0.49371947  0.16614368  0.44626810    -0.18700
C1170       C  0.49576489  0.17858392  0.48704147     0.03700
C1171       C  0.47289834  0.18334935  0.51173987     0.17900
C1172       C  0.44898391  0.17773126  0.49412128    -0.20100
C1173       C  0.47404056  0.19387647  0.55368111    -0.21400
C1174       C  0.49755659  0.19933820  0.57201620    -0.19900
C1175       C  0.52036996  0.19524151  0.54818975     0.19300
C1176       C  0.51972788  0.18572933  0.50473851     0.01400
C1177       C  0.54318296  0.18330706  0.48118768    -0.14700
C1178       C  0.56640930  0.18663751  0.50195885    -0.12400
C1179       C  0.56685641  0.19291293  0.54632259     0.00900
C1180       C  0.54391687  0.19905047  0.56841680    -0.24600
H1181       H  0.46903798  0.15184858  0.39718618     0.08900
H1182       H  0.51020859  0.16060308  0.42666421     0.12500
H1183       H  0.43161113  0.18246581  0.51249072     0.11200
H1184       H  0.45665915  0.19741103  0.57276911     0.12400
H1185       H  0.49791643  0.20662023  0.60513556     0.11400
H1186       H  0.54422090  0.17788414  0.44725174     0.08500
H1187       H  0.58406360  0.18212848  0.48428348     0.11800
H1188       H  0.54420995  0.20389196  0.60284335     0.13600
C1189       C  0.31259536  0.78325673  0.84900279    -0.01900
C1190       C  0.32028515  0.75747489  0.84844160    -0.09900
C1191       C  0.30322637  0.73807968  0.83650547    -0.18700
C1192       C  0.27787738  0.74397058  0.82414856     0.03700
C1193       C  0.27004239  0.77012053  0.82601285     0.17900
C1194       C  0.28725476  0.78929656  0.83852309    -0.20100
C1195       C  0.24519686  0.77716208  0.81450934    -0.21400
C1196       C  0.22804006  0.75886874  0.80004200    -0.19900
C1197       C  0.23530813  0.73308660  0.79664506     0.19300
C1198       C  0.26018278  0.72508999  0.80911415     0.01400
C1199       C  0.26629438  0.69867912  0.80508320    -0.14700
C1200       C  0.24861462  0.68116650  0.78852268    -0.12400
C1201       C  0.22432138  0.68935184  0.77559360     0.00900
C1202       C  0.21780005  0.71532678  0.78026298    -0.24600
H1203       H  0.33965405  0.75225677  0.85697962     0.08900
H1204       H  0.31055281  0.71873277  0.83666996     0.12500
H1205       H  0.28100059  0.80916082  0.83898039     0.11200
H1206       H  0.23909191  0.79704532  0.81611463     0.12400
H1207       H  0.20903351  0.76500849  0.79083890     0.11400
H1208       H  0.28461678  0.69099563  0.81416598     0.08500
H1209       H  0.25401120  0.66113245  0.78585221     0.11800
H1210       H  0.19894988  0.72189246  0.77092267     0.13600
C1211       C  0.55397359  0.85132443  0.06728040    -0.01900
C1212       C  0.55731861  0.85196103  0.02183334    -0.09900
C1213       C  0.53620037  0.85437297  0.99461918    -0.18700
C1214       C  0.51086222  0.85569172  0.01213267     0.03700
C1215       C  0.50762292  0.85459784  0.05829877     0.17900
C1216       C  0.52904172  0.85283997  0.08521638    -0.20100
C1217       C  0.48299417  0.85473226  0.07739127    -0.21400
C1218       C  0.46138829  0.85528953  0.05158677    -0.19900
C1219       C  0.46384803  0.85623259  0.00604078     0.19300
C1220       C  0.48859896  0.85721415  0.98563139     0.01400
C1221       C  0.48990399  0.85932231  0.93959391    -0.14700
C1222       C  0.46767327  0.85897569  0.91487294    -0.12400
C1223       C  0.44344292  0.85640499  0.93502911     0.00900
C1224       C  0.44166085  0.85559821  0.98073009    -0.24600
H1225       H  0.57638678  0.85073593  0.00724655     0.08900
H1226       H  0.54028836  0.85460191  0.95999902     0.12500
H1227       H  0.52621962  0.85188590  0.12036495     0.11200
H1228       H  0.48040658  0.85383338  0.11256318     0.12400
H1229       H  0.44260126  0.85477580  0.06738186     0.11400
H1230       H  0.50783476  0.86102614  0.92170883     0.08500
H1231       H  0.46956583  0.85974652  0.87961179     0.11800
H1232       H  0.42295463  0.85399447  0.99664873     0.13600
C1233       C  0.36658418  0.93596781  0.85480993    -0.01900
C1234       C  0.38951557  0.94994024  0.85535287    -0.09900
C1235       C  0.38923903  0.97670492  0.85729847    -0.18700
C1236       C  0.36582915  0.99046948  0.85893776     0.03700
C1237       C  0.34263309  0.97618194  0.85819925     0.17900
C1238       C  0.34321413  0.94927502  0.85596187    -0.20100
C1239       C  0.31893557  0.98878984  0.86017075    -0.21400
C1240       C  0.31770417  0.01534623  0.86397546    -0.19900
C1241       C  0.34014188  0.02997798  0.86544682     0.19300
C1242       C  0.36455126  0.01780586  0.86213305     0.01400
C1243       C  0.38659390  0.03352229  0.86279591    -0.14700
C1244       C  0.38447701  0.05997829  0.86841593    -0.12400
C1245       C  0.36041447  0.07179433  0.87350661     0.00900
C1246       C  0.33828883  0.05670541  0.87111809    -0.24600
H1247       H  0.40785873  0.94015770  0.85420246     0.08900
H1248       H  0.40767306  0.98597464  0.85786017     0.12500
H1249       H  0.32534234  0.93867063  0.85534674     0.11200
H1250       H  0.30119198  0.97799360  0.85941815     0.12400
H1251       H  0.29904681  0.02448771  0.86618370     0.11400
H1252       H  0.40577212  0.02599678  0.85957062     0.08500
H1253       H  0.40195541  0.07115423  0.86980014     0.11800
H1254       H  0.31959389  0.06565301  0.87481472     0.13600
C1255       C  0.56328903  0.80050910  0.71334394    -0.01900
C1256       C  0.55965200  0.79961867  0.75868181    -0.09900
C1257       C  0.53519777  0.79585963  0.77710572    -0.18700
C1258       C  0.51340905  0.79410954  0.75043929     0.03700
C1259       C  0.51745239  0.79418835  0.70439979     0.17900
C1260       C  0.54234083  0.79627866  0.68643341    -0.20100
C1261       C  0.49653494  0.79439204  0.67651130    -0.21400
C1262       C  0.47164421  0.79636947  0.69331565    -0.19900
C1263       C  0.46702156  0.79696626  0.73844877     0.19300
C1264       C  0.48772993  0.79438630  0.76765523     0.01400
C1265       C  0.48184653  0.79334987  0.81285198    -0.14700
C1266       C  0.45679919  0.79713108  0.82843320    -0.12400
C1267       C  0.43691921  0.80232058  0.79964649     0.00900
C1268       C  0.44197014  0.80135549  0.75462458    -0.24600
H1269       H  0.57557102  0.80335353  0.77993821     0.08900
H1270       H  0.53375025  0.79637759  0.81223047     0.12500
H1271       H  0.54498971  0.79772969  0.65129457     0.11200
H1272       H  0.49951471  0.79443584  0.64139276     0.12400
H1273       H  0.45594429  0.79793231  0.67083686     0.11400
H1274       H  0.49627032  0.79022551  0.83697906     0.08500
H1275       H  0.45336935  0.79790977  0.86342167     0.11800
H1276       H  0.42661271  0.80526685  0.73222984     0.13600
C1277       C  0.21573036  0.70266036  0.25022083    -0.01900
C1278       C  0.21035825  0.72908177  0.25092009    -0.09900
C1279       C  0.22868384  0.74702688  0.26372853    -0.18700
C1280       C  0.25334158  0.73925021  0.27686503     0.03700
C1281       C  0.25942053  0.71266174  0.27357164     0.17900
C1282       C  0.24072271  0.69468186  0.26024771    -0.20100
C1283       C  0.28387090  0.70412002  0.28506514    -0.21400
C1284       C  0.30217514  0.72124390  0.30054131    -0.19900
C1285       C  0.29651588  0.74741409  0.30564413     0.19300
C1286       C  0.27197421  0.75678808  0.29385819     0.01400
C1287       C  0.26695320  0.78320470  0.30066112    -0.14700
C1288       C  0.28536751  0.79950288  0.31838206    -0.12400
C1289       C  0.30968048  0.79040458  0.32984136     0.00900
C1290       C  0.31513358  0.76420866  0.32297004    -0.24600
H1291       H  0.19139605  0.73596337  0.24303611     0.08900
H1292       H  0.22274165  0.76683373  0.26384837     0.12500
H1293       H  0.24522507  0.67436444  0.26009760     0.11200
H1294       H  0.28881746  0.68395988  0.28249182     0.12400
H1295       H  0.32079607  0.71384747  0.30931900     0.11400
H1296       H  0.24881940  0.79186255  0.29311575     0.08500
H1297       H  0.28047399  0.81956304  0.32287174     0.11800
H1298       H  0.33376780  0.75678122  0.33161223     0.13600
C1299       C  0.55569670  0.85016943  0.57025123    -0.01900
C1300       C  0.55874573  0.85376479  0.52514940    -0.09900
C1301       C  0.53743369  0.85449602  0.49806412    -0.18700
C1302       C  0.51222892  0.85091455  0.51519874     0.03700
C1303       C  0.50935253  0.84655332  0.56087586     0.17900
C1304       C  0.53088754  0.84676827  0.58791452    -0.20100
C1305       C  0.48503296  0.84159151  0.57922901    -0.21400
C1306       C  0.46347699  0.84065305  0.55321776    -0.19900
C1307       C  0.46549116  0.84538863  0.50828352     0.19300
C1308       C  0.48984309  0.85104268  0.48871024     0.01400
C1309       C  0.49063949  0.85672136  0.44356319    -0.14700
C1310       C  0.46837278  0.85632878  0.41889087    -0.12400
C1311       C  0.44448604  0.85002065  0.43794972     0.00900
C1312       C  0.44324884  0.84457171  0.48282555    -0.24600
H1313       H  0.57775716  0.85612348  0.51075431     0.08900
H1314       H  0.54135511  0.85731494  0.46372864     0.12500
H1315       H  0.52842608  0.84336449  0.62267598     0.11200
H1316       H  0.48267803  0.83816360  0.61396276     0.12400
H1317       H  0.44501967  0.83643799  0.56848607     0.11400
H1318       H  0.50817132  0.86176241  0.42640528     0.08500
H1319       H  0.47000255  0.86058791  0.38433101     0.11800
H1320       H  0.42490007  0.83985555  0.49807879     0.13600
C1321       C  0.37090201  0.93876695  0.36666049    -0.01900
C1322       C  0.39288505  0.95132576  0.38126590    -0.09900
C1323       C  0.39327085  0.97804915  0.38657040    -0.18700
C1324       C  0.37158946  0.99329679  0.37704052     0.03700
C1325       C  0.34942534  0.98048501  0.36180049     0.17900
C1326       C  0.34923821  0.95359277  0.35701046    -0.20100
C1327       C  0.32752458  0.99457694  0.35131019    -0.21400
C1328       C  0.32697188  0.02112731  0.35614845    -0.19900
C1329       C  0.34830662  0.03435213  0.37158373     0.19300
C1330       C  0.37102763  0.02070789  0.38199086     0.01400
C1331       C  0.39214180  0.03517454  0.39668095    -0.14700
C1332       C  0.39078782  0.06194919  0.40046280    -0.12400
C1333       C  0.36832278  0.07528928  0.39034186     0.00900
C1334       C  0.34710002  0.06123809  0.37616380    -0.24600
H1335       H  0.40991967  0.94041767  0.38882942     0.08900
H1336       H  0.41084718  0.98620148  0.39814239     0.12500
H1337       H  0.33218296  0.94420464  0.34519353     0.11200
H1338       H  0.31062887  0.98497256  0.33938177     0.12400
H1339       H  0.30966852  0.03140502  0.34778820     0.11400
H1340       H  0.41009180  0.02638854  0.40507489     0.08500
H1341       H  0.40755508  0.07230553  0.41103029     0.11800
H1342       H  0.32975679  0.07133634  0.36737345     0.13600
C1343       C  0.33671043  0.85218642  0.49265724    -0.01900
C1344       C  0.33057637  0.83075298  0.51834622    -0.09900
C1345       C  0.32864877  0.83270683  0.56368177    -0.18700
C1346       C  0.33355709  0.85619887  0.58503872     0.03700
C1347       C  0.33946178  0.87803533  0.55876346     0.17900
C1348       C  0.34033627  0.87599193  0.51295559    -0.20100
C1349       C  0.34578869  0.90139631  0.57842324    -0.21400
C1350       C  0.34792635  0.90312647  0.62353222    -0.19900
C1351       C  0.34295470  0.88176101  0.65013062     0.19300
C1352       C  0.33437000  0.85838829  0.63145691     0.01400
C1353       C  0.32773536  0.83798524  0.66006230    -0.14700
C1354       C  0.33155471  0.84001295  0.70487463    -0.12400
C1355       C  0.34233203  0.86219339  0.72235705     0.00900
C1356       C  0.34732209  0.88329608  0.69516899    -0.24600
H1357       H  0.32783018  0.81216173  0.50329399     0.08900
H1358       H  0.32452173  0.81517965  0.58115057     0.12500
H1359       H  0.34557475  0.89255819  0.49323510     0.11200
H1360       H  0.35019826  0.91815744  0.55866775     0.12400
H1361       H  0.35394882  0.92116333  0.63764278     0.11400
H1362       H  0.31980142  0.82014663  0.64877014     0.08500
H1363       H  0.32721042  0.82368929  0.72570299     0.11800
H1364       H  0.35509113  0.90072418  0.70902525     0.13600
C1365       C  0.33798443  0.85483855  0.99404091    -0.01900
C1366       C  0.32935259  0.83494960  0.02116756    -0.09900
C1367       C  0.32910048  0.83777365  0.06633703    -0.18700
C1368       C  0.33830490  0.86048212  0.08585621     0.03700
C1369       C  0.34690383  0.88071775  0.05800223     0.17900
C1370       C  0.34596267  0.87799973  0.01245324    -0.20100
C1371       C  0.35764255  0.90292112  0.07573789    -0.21400
C1372       C  0.36101545  0.90502367  0.12052336    -0.19900
C1373       C  0.35287630  0.88536713  0.14873472     0.19300
C1374       C  0.34046415  0.86327739  0.13189609     0.01400
C1375       C  0.33106348  0.84473481  0.16186366    -0.14700
C1376       C  0.33495252  0.84739438  0.20639030    -0.12400
C1377       C  0.34857618  0.86832551  0.22246828     0.04100
C1378       C  0.35732612  0.88743168  0.19368720    -0.24600
H1379       H  0.32348136  0.81679420  0.00730241     0.08900
H1380       H  0.32282071  0.82131085  0.08498234     0.12500
H1381       H  0.35331080  0.89314874  0.99132558     0.11200
H1382       H  0.36430198  0.91838511  0.05469524     0.12400
H1383       H  0.37015401  0.92207844  0.13315953     0.11400
H1384       H  0.32052673  0.82799688  0.15203016     0.08500
H1385       H  0.32798693  0.83248830  0.22831539     0.11800
H1386       H  0.36757795  0.90384994  0.20631966     0.13600
C1387       C  0.56010940  0.79953475  0.20909413    -0.01900
C1388       C  0.55604948  0.79641926  0.25400631    -0.09900
C1389       C  0.53154055  0.79099117  0.27090662    -0.18700
C1390       C  0.51010268  0.79015818  0.24328946     0.03700
C1391       C  0.51460345  0.79243668  0.19754996     0.17900
C1392       C  0.53963896  0.79577459  0.18085537    -0.20100
C1393       C  0.49393477  0.79416838  0.16918976    -0.21400
C1394       C  0.46897461  0.79652547  0.18570615    -0.19900
C1395       C  0.46405952  0.79566657  0.23077330     0.19300
C1396       C  0.48430531  0.79019987  0.25975447     0.01400
C1397       C  0.47799508  0.78681647  0.30439881    -0.14700
C1398       C  0.45339410  0.79234955  0.32041919    -0.12400
C1399       C  0.43452830  0.80164359  0.29259955     0.00900
C1400       C  0.43950130  0.80197908  0.24747127    -0.24600
H1401       H  0.57160951  0.79959894  0.27624713     0.08900
H1402       H  0.52961322  0.78994121  0.30597120     0.12500
H1403       H  0.54264684  0.79886095  0.14608247     0.11200
H1404       H  0.49723859  0.79582209  0.13424433     0.12400
H1405       H  0.45356578  0.79993992  0.16322691     0.11400
H1406       H  0.49192185  0.78074433  0.32781727     0.08500
H1407       H  0.44983545  0.79153028  0.35537130     0.11800
H1408       H  0.42476610  0.80862487  0.22569926     0.13600
loop_ 
_geom_bond_atom_site_label_1 
_geom_bond_atom_site_label_2 
_geom_bond_distance 
_geom_bond_site_symmetry_2 
_ccdc_geom_bond_type 
O1           C16   1.267       .  A
O1           Al9   1.926       .  S
C2           O12   1.267       .  A
C2            O3   1.261       .  A
C2         C1377   1.467       .  S
O3           Al5   1.879       .  S
O4            C6   1.268       .  A
O4           Al5   1.935       .  S
Al5          O13   1.927       .  S
Al5          O15   1.903       .  S
Al5          O14   1.778       .  S
C6           O19   1.267       .  A
C6         C1289   1.502       .  S
O7           C17   1.261       .  A
O7           Al9   1.914       .  S
O8           C21   1.268       .  A
O8          Al18   1.926       .  S
Al9          O22   1.918       .  S
Al9          O19   1.932       .  S
Al9          O14   1.782       .  S
O10          C17   1.259       .  A
O10         Al18   1.903       .  S
O11          C20   1.260       .  A
O11         Al18   1.908       .  S
O12         Al18   1.930       .  S
O13          C20   1.263       .  A
O14         Al18   1.778       .  S
O15          C16   1.263       .  A
C16        C1343   1.476       .  S
C17        C1399   1.475       .  S
C20        C1321   1.490       .  S
C21          O22   1.267       .  A
C21        C1311   1.491       .  S
O23          C38   1.263       .  A
O23         Al31   1.917       .  S
C24          O34   1.267       .  A
C24          O25   1.262       .  A
C24        C1355   1.469       .  S
O25         Al27   1.893       .  S
O26          C28   1.268       .  A
O26         Al27   1.927       .  S
Al27         O35   1.919       .  S
Al27         O37   1.903       .  S
Al27         O36   1.774       .  S
C28          O41   1.266       .  A
C28        C1189   1.483       .  S
O29          C39   1.262       .  A
O29         Al31   1.923       .  S
O30          C43   1.270       .  A
O30         Al40   1.937       .  S
Al31         O44   1.900       .  S
Al31         O41   1.906       .  S
Al31         O36   1.780       .  S
O32          C39   1.258       .  A
O32         Al40   1.896       .  S
O33          C42   1.258       .  A
O33         Al40   1.886       .  S
O34         Al40   1.929       .  S
O35          C42   1.263       .  A
O36         Al40   1.772       .  S
O37          C38   1.261       .  A
C38        C1365   1.466       .  S
C39        C1267   1.474       .  S
C42        C1233   1.479       .  S
C43          O44   1.265       .  A
C43        C1223   1.481       .  S
O45          C60   1.258       .  A
O45         Al53   1.881       .  S
C46          O56   1.267       .  A
C46          O47   1.265       .  A
C46        C1157   1.475       .  S
O47         Al49   1.905       .  S
O48          C50   1.258       .  A
O48         Al49   1.893       .  S
Al49         O57   1.902       .  S
Al49         O59   1.914       .  S
Al49         O58   1.774       .  S
C50          O63   1.267       .  A
C50        C1101   1.484       .  S
O51          C61   1.267       .  A
O51         Al53   1.920       .  S
O52          C65   1.270       .  A
O52         Al62   1.926       .  S
Al53         O66   1.909       .  S
Al53         O63   1.946       .  S
Al53         O58   1.782       .  S
O54          C61   1.265       .  A
O54         Al62   1.914       .  S
O55          C64   1.265       .  A
O55         Al62   1.937       .  S
O56         Al62   1.920       .  S
O57          C64   1.260       .  A
O58         Al62   1.780       .  S
O59          C60   1.263       .  A
C60        C1167   1.471       .  S
C61        C1091   1.490       .  S
C64        C1333   1.488       .  S
C65          O66   1.267       .  A
C65        C1123   1.486       .  S
O67          C82   1.268       .  A
O67         Al75   1.919       .  S
C68          O78   1.263       .  A
C68          O69   1.263       .  A
C68        C1145   1.478   1_556  S
O69         Al71   1.920       .  S
O70          C72   1.268       .  A
O70         Al71   1.932       .  S
Al71         O79   1.951       .  S
Al71         O81   1.906       .  S
Al71         O80   1.773       .  S
C72          O85   1.261       .  A
C72        C1013   1.479       .  S
O73          C83   1.269       .  A
O73         Al75   1.949       .  S
O74          C87   1.265       .  A
O74         Al84   1.930       .  S
Al75         O88   1.894       .  S
Al75         O85   1.884       .  S
Al75         O80   1.772       .  S
O76          C83   1.256       .  A
O76         Al84   1.871       .  S
O77          C86   1.258       .  A
O77         Al84   1.870       .  S
O78         Al84   1.912       .  S
O79          C86   1.271       .  A
O80         Al84   1.761       .  S
O81          C82   1.265       .  A
C82        C1135   1.483       .  S
C83        C1057   1.471       .  S
C86        C1245   1.479       .  S
C87          O88   1.260       .  A
C87        C1035   1.477       .  S
O89         C104   1.263       .  A
O89         Al97   1.923       .  S
C90         O100   1.266       .  A
C90          O91   1.260       .  A
C90         C991   1.468       .  S
O91         Al93   1.885       .  S
O92          C94   1.269       .  A
O92         Al93   1.934       .  S
Al93        O101   1.926       .  S
Al93        O103   1.896       .  S
Al93        O102   1.775       .  S
C94         O107   1.267       .  A
C94         C925   1.492       .  S
O95         C105   1.261       .  A
O95         Al97   1.919       .  S
O96         C109   1.269       .  A
O96        Al106   1.929       .  S
Al97        O110   1.912       .  S
Al97        O107   1.915       .  S
Al97        O102   1.784       .  S
O98         C105   1.259       .  A
O98        Al106   1.902       .  S
O99         C108   1.260       .  A
O99        Al106   1.900       .  S
O100       Al106   1.930       .  S
O101        C108   1.264       .  A
O102       Al106   1.774       .  S
O103        C104   1.260       .  A
C104        C969   1.465       .  S
C105       C1387   1.472       .  S
C108        C947   1.489       .  S
C109        O110   1.268       .  A
C109       C1211   1.483       .  S
O111        C126   1.268       .  A
O111       Al119   1.931       .  S
C112        O122   1.268       .  A
C112        O113   1.263       .  A
C112        C981   1.472       .  S
O113       Al115   1.891       .  S
O114        C116   1.266       .  A
O114       Al115   1.923       .  S
Al115       O123   1.913       .  S
Al115       O125   1.899       .  S
Al115       O124   1.775       .  S
C116        O129   1.267       .  A
C116        C881   1.491       .  S
O117        C127   1.263       .  A
O117       Al119   1.930       .  S
O118        C131   1.270       .  A
O118       Al128   1.944       .  S
Al119       O132   1.907       .  S
Al119       O129   1.924       .  S
Al119       O124   1.778       .  S
O120        C127   1.256       .  A
O120       Al128   1.887       .  S
O121        C130   1.261       .  A
O121       Al128   1.900       .  S
O122       Al128   1.926       .  S
O123        C130   1.261       .  A
O124       Al128   1.769       .  S
O125        C126   1.263       .  A
C126       C1003   1.474       .  S
C127       C1255   1.471       .  S
C130        C903   1.480       .  S
C131        O132   1.265       .  A
C131       C1299   1.484       .  S
O133        C148   1.260       .  A
O133       Al141   1.888       .  S
C134        O144   1.266       .  A
C134        O135   1.267       .  A
C134        C871   1.482       .  S
O135       Al137   1.918       .  S
O136        C138   1.260       .  A
O136       Al137   1.902       .  S
Al137       O145   1.903       .  S
Al137       O147   1.918       .  S
Al137       O146   1.776       .  S
C138        O151   1.267       .  A
C138       C1113   1.481       .  S
O139        C149   1.267       .  A
O139       Al141   1.923       .  S
O140        C153   1.267       .  A
O140       Al150   1.914       .  S
Al141       O154   1.920       .  S
Al141       O151   1.941       .  S
Al141       O146   1.784       .  S
O142        C149   1.265       .  A
O142       Al150   1.913       .  S
O143        C152   1.265       .  A
O143       Al150   1.936       .  S
O144       Al150   1.915       .  S
O145        C152   1.261       .  A
O146       Al150   1.779       .  S
O147        C148   1.264       .  A
C148       C1069   1.477       .  S
C149        C815   1.493       .  S
C152        C959   1.490       .  S
C153        O154   1.267       .  A
C153        C837   1.482   1_554  S
O155        C170   1.266       .  A
O155       Al163   1.922       .  S
C156        O166   1.264       .  A
C156        O157   1.263       .  A
C156        C859   1.484       .  S
O157       Al159   1.916       .  S
O158        C160   1.269       .  A
O158       Al159   1.932       .  S
Al159       O167   1.950       .  S
Al159       O169   1.903       .  S
Al159       O168   1.772       .  S
C160        O173   1.261       .  A
C160        C805   1.482       .  S
O161        C171   1.268       .  A
O161       Al163   1.941       .  S
O162        C175   1.265       .  A
O162       Al172   1.933       .  S
Al163       O176   1.900       .  S
Al163       O173   1.890       .  S
Al163       O168   1.775       .  S
O164        C171   1.256       .  A
O164       Al172   1.872       .  S
O165        C174   1.260       .  A
O165       Al172   1.873       .  S
O166       Al172   1.918       .  S
O167        C174   1.271       .  A
O168       Al172   1.763       .  S
O169        C170   1.263       .  A
C170        C849   1.481       .  S
C171       C1179   1.463       .  S
C174        C915   1.480       .  S
C175        O176   1.261       .  A
C175       C1047   1.474       .  S
O177        C192   1.258       .  A
O177       Al185   1.883       .  S
C178        O188   1.268       .  A
C178        O179   1.266       .  A
C178        C739   1.482       .  S
O179       Al181   1.913       .  S
O180        C182   1.259       .  A
O180       Al181   1.895       .  S
Al181       O189   1.909       .  S
Al181       O191   1.924       .  S
Al181       O190   1.780       .  S
C182        O195   1.270       .  A
C182        C683   1.485       .  S
O183        C193   1.267       .  A
O183       Al185   1.920       .  S
O184        C197   1.267       .  A
O184       Al194   1.917       .  S
Al185       O198   1.928       .  S
Al185       O195   1.954       .  S
Al185       O190   1.784       .  S
O186        C193   1.263       .  A
O186       Al194   1.914       .  S
O187        C196   1.263       .  A
O187       Al194   1.919       .  S
O188       Al194   1.927       .  S
O189        C196   1.262       .  A
O190       Al194   1.778       .  S
O191        C192   1.264       .  A
C192        C771   1.477       .  S
C193        C937   1.490       .  S
C196        C705   1.485       .  S
C197        O198   1.268       .  A
C197        C749   1.485       .  S
O199        C214   1.267       .  A
O199       Al207   1.919       .  S
C200        O210   1.266       .  A
C200        O201   1.264       .  A
C200        C727   1.482       .  S
O201       Al203   1.918       .  S
O202        C204   1.271       .  A
O202       Al203   1.946       .  S
Al203       O211   1.965       .  S
Al203       O213   1.929       .  S
Al203       O212   1.775       .  S
C204        O217   1.264       .  A
C204        C893   1.490       .  S
O205        C215   1.266       .  A
O205       Al207   1.947       .  S
O206        C219   1.266       .  A
O206       Al216   1.935       .  S
Al207       O220   1.894       .  S
Al207       O217   1.898       .  S
Al207       O212   1.775       .  S
O208        C215   1.257       .  A
O208       Al216   1.877       .  S
O209        C218   1.259       .  A
O209       Al216   1.879       .  S
O210       Al216   1.922       .  S
O211        C218   1.271       .  A
O212       Al216   1.764       .  S
O213        C214   1.269       .  A
C214        C761   1.486       .  S
C215        C661   1.474       .  S
C218        C639   1.489       .  S
C219        O220   1.261       .  A
C219        C629   1.469       .  S
O221        C236   1.258       .  A
O221       Al229   1.880       .  S
C222        O232   1.266       .  A
C222        O223   1.264       .  A
C222        C529   1.473       .  S
O223       Al225   1.911       .  S
O224        C226   1.254       .  A
O224       Al225   1.873       .  S
Al225       O233   1.884       .  S
Al225       O235   1.925       .  S
Al225       O234   1.770       .  S
C226        O239   1.273       .  A
C226        C595   1.482       .  S
O227        C237   1.270       .  A
O227       Al229   1.928       .  S
O228        C241   1.270       .  A
O228       Al238   1.922       .  S
Al229       O242   1.927       .  S
Al229       O239   1.972       .  S
Al229       O234   1.776       .  S
O230        C237   1.267       .  A
O230       Al238   1.925       .  S
O231        C240   1.271       .  A
O231       Al238   1.960       .  S
O232       Al238   1.922       .  S
O233        C240   1.258       .  A
O234       Al238   1.771       .  S
O235        C236   1.263       .  A
C236        C585   1.469       .  S
C237       C1277   1.498       .  S
C240        C717   1.487       .  S
C241        O242   1.271       .  A
C241        C563   1.487       .  S
O243        C258   1.269       .  A
O243       Al251   1.932       .  S
C244        O254   1.265       .  A
C244        O245   1.263       .  A
C244        C541   1.473       .  S
O245       Al247   1.911       .  S
O246        C248   1.264       .  A
O246       Al247   1.915       .  S
Al247       O255   1.913       .  S
Al247       O257   1.912       .  S
Al247       O256   1.777       .  S
C248        O261   1.262       .  A
C248       C1201   1.481       .  S
O249        C259   1.262       .  A
O249       Al251   1.924       .  S
O250        C263   1.269       .  A
O250       Al260   1.931       .  S
Al251       O264   1.897       .  S
Al251       O261   1.903       .  S
Al251       O256   1.780       .  S
O252        C259   1.259       .  A
O252       Al260   1.897       .  S
O253        C262   1.265       .  A
O253       Al260   1.909       .  S
O254       Al260   1.915       .  S
O255        C262   1.263       .  A
O256       Al260   1.773       .  S
O257        C258   1.265       .  A
C258        C551   1.489       .  S
C259        C485   1.471       .  S
C262        C651   1.484       .  S
C263        O264   1.264       .  A
C263        C519   1.482       .  S
O265        C280   1.260       .  A
O265       Al273   1.888       .  S
C266        O276   1.266       .  A
C266        O267   1.266       .  A
C266        C463   1.478       .  S
O267       Al269   1.909       .  S
O268        C270   1.258       .  A
O268       Al269   1.899       .  S
Al269       O277   1.911       .  S
Al269       O279   1.925       .  S
Al269       O278   1.776       .  S
C270        O283   1.266       .  A
C270        C695   1.484       .  S
O271        C281   1.266       .  A
O271       Al273   1.915       .  S
O272        C285   1.268       .  A
O272       Al282   1.925       .  S
Al273       O286   1.918       .  S
Al273       O283   1.943       .  S
Al273       O278   1.785       .  S
O274        C281   1.264       .  A
O274       Al282   1.910       .  S
O275        C284   1.262       .  A
O275       Al282   1.917       .  S
O276       Al282   1.915       .  S
O277        C284   1.263       .  A
O278       Al282   1.780       .  S
O279        C280   1.267       .  A
C280        C673   1.479       .  S
C281        C793   1.483       .  S
C284        C431   1.490       .  S
C285        O286   1.267       .  A
C285        C441   1.484       .  S
O287        C302   1.270       .  A
O287       Al295   1.925   1_556  S
C288        O298   1.265       .  A
C288        O289   1.265       .  A
C288        C475   1.480       .  S
O289       Al291   1.916       .  S
O290        C292   1.270       .  A
O290       Al291   1.937       .  S
Al291       O299   1.963       .  S
Al291       O301   1.913   1_554  S
Al291       O300   1.775       .  S
C292        O305   1.265       .  A
C292        C827   1.492       .  S
O293        C303   1.267       .  A
O293       Al295   1.945       .  S
O294        C307   1.265   1_554  A
O294       Al304   1.921       .  S
Al295       O308   1.906   1_554  S
Al295       O305   1.910       .  S
Al295       O300   1.776       .  S
O296        C303   1.255       .  A
O296       Al304   1.874       .  S
O297        C306   1.257       .  A
O297       Al304   1.870       .  S
O298       Al304   1.913       .  S
O299        C306   1.270       .  A
O300       Al304   1.758       .  S
O301        C302   1.267       .  A
C302        C453   1.484       .  S
C303        C783   1.473       .  S
C306        C397   1.486       .  S
C307        O308   1.263       .  A
C307        C617   1.481       .  S
O309        C324   1.266       .  A
O309       Al317   1.917       .  S
C310        O320   1.267       .  A
C310        O311   1.263       .  A
C310        C353   1.477       .  S
O311       Al313   1.909       .  S
O312        C314   1.260       .  A
O312       Al313   1.897       .  S
Al313       O321   1.906       .  S
Al313       O323   1.910   1_556  S
Al313       O322   1.780       .  S
C314        O327   1.264       .  A
C314       C1025   1.478       .  S
O315        C325   1.261       .  A
O315       Al317   1.910   1_556  S
O316        C329   1.268       .  A
O316       Al326   1.932   1_554  S
Al317       O330   1.905       .  S
Al317       O327   1.913   1_554  S
Al317       O322   1.780   1_554  S
O318        C325   1.260       .  A
O318       Al326   1.905       .  S
O319        C328   1.263       .  A
O319       Al326   1.908       .  S
O320       Al326   1.926       .  S
O321        C328   1.260       .  A
O322       Al326   1.775       .  S
O323        C324   1.265       .  A
C324        C375   1.477       .  S
C325        C497   1.470       .  S
C328        C409   1.482   1_556  S
C329        O330   1.264       .  A
C329        C607   1.488       .  S
O331        C346   1.259       .  A
O331       Al339   1.894       .  S
C332        O342   1.266       .  A
C332        O333   1.262       .  A
C332        C365   1.478       .  S
O333       Al335   1.907       .  S
O334        C336   1.257       .  A
O334       Al335   1.878       .  S
Al335       O343   1.887       .  S
Al335       O345   1.914       .  S
Al335       O344   1.770       .  S
C336        O349   1.269       .  A
C336        C507   1.475       .  S
O337        C347   1.267       .  A
O337       Al339   1.918       .  S
O338        C351   1.269       .  A
O338       Al348   1.924       .  S
Al339       O352   1.907       .  S
Al339       O349   1.950       .  S
Al339       O344   1.781       .  S
O340        C347   1.267       .  A
O340       Al348   1.917       .  S
O341        C350   1.270       .  A
O341       Al348   1.954       .  S
O342       Al348   1.931       .  S
O343        C350   1.260       .  A
O344       Al348   1.772       .  S
O345        C346   1.262       .  A
C346        C573   1.467       .  S
C347       C1079   1.490       .  S
C350        C419   1.489       .  S
C351        O352   1.265       .  A
C351        C387   1.478       .  S
C353        C354   1.397       .  A
C353        C358   1.403       .  A
C354        C355   1.394       .  A
C354        H367   1.085       .  S
C355        C356   1.416       .  A
C355        H368   1.074       .  S
C356        C362   1.431       .  A
C356        C357   1.422       .  A
C357        C359   1.402       .  A
C357        C358   1.412       .  A
C358        H369   1.083       .  S
C359        C360   1.395       .  A
C359        H370   1.083       .  S
C360        C361   1.401       .  A
C360        H371   1.083       .  S
C361        C362   1.423       .  A
C361        C366   1.414       .  A
C362        C363   1.413       .  A
C363        C364   1.392       .  A
C363        H372   1.074       .  S
C364        C365   1.399       .  A
C364        H373   1.085       .  S
C365        C366   1.404       .  A
C366        H374   1.082       .  S
C375        C376   1.400       .  A
C375        C380   1.402       .  A
C376        C377   1.391       .  A
C376        H389   1.084       .  S
C377        C378   1.414       .  A
C377        H390   1.077       .  S
C378        C384   1.429       .  A
C378        C379   1.423       .  A
C379        C381   1.401       .  A
C379        C380   1.409       .  A
C380        H391   1.084       .  S
C381        C382   1.393       .  A
C381        H392   1.084       .  S
C382        C383   1.400       .  A
C382        H393   1.084       .  S
C383        C384   1.424       .  A
C383        C388   1.411       .  A
C384        C385   1.412       .  A
C385        C386   1.390       .  A
C385        H394   1.077       .  S
C386        C387   1.401       .  A
C386        H395   1.084       .  S
C387        C388   1.401       .  A
C388        H396   1.084       .  S
C397        C398   1.403       .  A
C397        C402   1.405       .  A
C398        C399   1.388       .  A
C398        H411   1.083       .  S
C399        C400   1.409       .  A
C399        H412   1.077       .  S
C400        C406   1.428   1_655  A
C400        C401   1.424       .  A
C401        C403   1.401       .  A
C401        C402   1.414       .  A
C402        H413   1.084       .  S
C403        C404   1.395   1_655  A
C403        H414   1.084       .  S
C404        C405   1.402       .  A
C404        H415   1.084   1_554  S
C405        C406   1.419       .  A
C405        C410   1.407       .  A
C406        C407   1.416       .  A
C407        C408   1.394       .  A
C407        H416   1.077       .  S
C408        C409   1.397       .  A
C408        H417   1.083       .  S
C409        C410   1.408       .  A
C410        H418   1.084   1_554  S
C419        C420   1.401       .  A
C419        C424   1.406       .  A
C420        C421   1.401       .  A
C420        H433   1.083       .  S
C421        C422   1.417       .  A
C421        H434   1.077       .  S
C422        C428   1.434   1_455  A
C422        C423   1.421       .  A
C423        C425   1.401       .  A
C423        C424   1.407       .  A
C424        H435   1.084       .  S
C425        C426   1.392   1_455  A
C425        H436   1.084       .  S
C426        C427   1.400       .  A
C426        H437   1.084       .  S
C427        C428   1.424       .  A
C427        C432   1.411       .  A
C428        C429   1.413       .  A
C429        C430   1.398       .  A
C429        H438   1.078       .  S
C430        C431   1.404       .  A
C430        H439   1.083       .  S
C431        C432   1.404       .  A
C432        H440   1.084       .  S
C441        C442   1.401       .  A
C441        C446   1.405       .  A
C442        C443   1.391       .  A
C442        H455   1.084       .  S
C443        C444   1.411       .  A
C443        H456   1.077       .  S
C444        C450   1.430       .  A
C444        C445   1.423       .  A
C445        C447   1.402       .  A
C445        C446   1.414       .  A
C446        H457   1.084       .  S
C447        C448   1.396       .  A
C447        H458   1.084       .  S
C448        C449   1.402       .  A
C448        H459   1.084       .  S
C449        C450   1.422       .  A
C449        C454   1.412       .  A
C450        C451   1.414       .  A
C451        C452   1.393       .  A
C451        H460   1.077       .  S
C452        C453   1.400       .  A
C452        H461   1.083       .  S
C453        C454   1.406       .  A
C454        H462   1.084       .  S
C463        C464   1.401       .  A
C463        C468   1.399       .  A
C464        C465   1.404       .  A
C464        H477   1.083       .  S
C465        C466   1.418       .  A
C465        H478   1.078       .  S
C466        C472   1.433       .  A
C466        C467   1.422       .  A
C467        C469   1.397       .  A
C467        C468   1.397       .  A
C468        H479   1.085       .  S
C469        C470   1.384       .  A
C469        H480   1.084       .  S
C470        C471   1.397       .  A
C470        H481   1.084       .  S
C471        C472   1.423       .  A
C471        C476   1.398       .  A
C472        C473   1.417       .  A
C473        C474   1.404       .  A
C473        H482   1.078       .  S
C474        C475   1.402       .  A
C474        H483   1.083       .  S
C475        C476   1.399       .  A
C476        H484   1.085       .  S
C485        C486   1.401       .  A
C485        C490   1.399       .  A
C486        C487   1.395       .  A
C486        H499   1.084       .  S
C487        C488   1.412       .  A
C487        H500   1.078       .  S
C488        C494   1.428       .  A
C488        C489   1.423       .  A
C489        C491   1.399       .  A
C489        C490   1.405       .  A
C490        H501   1.085       .  S
C491        C492   1.389       .  A
C491        H502   1.084       .  S
C492        C493   1.400       .  A
C492        H503   1.084       .  S
C493        C494   1.421       .  A
C493        C498   1.400       .  A
C494        C495   1.418       .  A
C495        C496   1.400       .  A
C495        H504   1.078       .  S
C496        C497   1.397       .  A
C496        H505   1.083       .  S
C497        C498   1.401       .  A
C498        H506   1.085       .  S
C507        C508   1.400       .  A
C507        C512   1.401       .  A
C508        C509   1.395       .  A
C508        H521   1.084       .  S
C509        C510   1.414       .  A
C509        H522   1.077       .  S
C510        C516   1.431       .  A
C510        C511   1.423       .  A
C511        C513   1.400       .  A
C511        C512   1.407       .  A
C512        H523   1.085       .  S
C513        C514   1.391       .  A
C513        H524   1.084       .  S
C514        C515   1.400       .  A
C514        H525   1.084       .  S
C515        C516   1.423       .  A
C515        C520   1.407       .  A
C516        C517   1.414       .  A
C517        C518   1.396       .  A
C517        H526   1.077       .  S
C518        C519   1.402       .  A
C518        H527   1.083       .  S
C519        C520   1.403       .  A
C520        H528   1.084       .  S
C529        C530   1.398       .  A
C529        C534   1.402       .  A
C530        C531   1.390       .  A
C530        H543   1.084       .  S
C531        C532   1.412       .  A
C531        H544   1.077       .  S
C532        C538   1.427   1_554  A
C532        C533   1.423       .  A
C533        C535   1.401       .  A
C533        C534   1.411       .  A
C534        H545   1.085       .  S
C535        C536   1.395   1_554  A
C535        H546   1.084       .  S
C536        C537   1.402       .  A
C536        H547   1.084       .  S
C537        C538   1.423       .  A
C537        C542   1.410       .  A
C538        C539   1.413       .  A
C539        C540   1.390       .  A
C539        H548   1.077       .  S
C540        C541   1.397       .  A
C540        H549   1.084       .  S
C541        C542   1.402       .  A
C542        H550   1.085       .  S
C551        C552   1.404       .  A
C551        C556   1.400       .  A
C552        C553   1.406       .  A
C552        H565   1.083       .  S
C553        C554   1.418       .  A
C553        H566   1.078       .  S
C554        C560   1.437       .  A
C554        C555   1.423       .  A
C555        C557   1.398       .  A
C555        C556   1.403       .  A
C556        H567   1.085       .  S
C557        C558   1.386       .  A
C557        H568   1.084       .  S
C558        C559   1.398       .  A
C558        H569   1.084       .  S
C559        C560   1.422       .  A
C559        C564   1.402       .  A
C560        C561   1.419       .  A
C561        C562   1.406       .  A
C561        H570   1.078       .  S
C562        C563   1.403       .  A
C562        H571   1.083       .  S
C563        C564   1.401       .  A
C564        H572   1.085       .  S
C573        C574   1.398       .  A
C573        C578   1.400       .  A
C574        C575   1.391       .  A
C574        H587   1.084       .  S
C575        C576   1.414       .  A
C575        H588   1.078       .  S
C576        C582   1.423       .  A
C576        C577   1.421       .  A
C577        C579   1.400       .  A
C577        C578   1.404       .  A
C578        H589   1.085       .  S
C579        C580   1.391       .  A
C579        H590   1.084       .  S
C580        C581   1.400       .  A
C580        H591   1.084       .  S
C581        C582   1.422       .  A
C581        C586   1.404       .  A
C582        C583   1.413       .  A
C583        C584   1.390       .  A
C583        H592   1.078       .  S
C584        C585   1.398       .  A
C584        H593   1.084       .  S
C585        C586   1.401       .  A
C586        H594   1.085       .  S
C595        C596   1.403       .  A
C595        C600   1.402       .  A
C596        C597   1.399       .  A
C596        H609   1.084       .  S
C597        C598   1.415       .  A
C597        H610   1.078       .  S
C598        C604   1.435       .  A
C598        C599   1.423       .  A
C599        C601   1.400       .  A
C599        C600   1.410       .  A
C600        H611   1.085       .  S
C601        C602   1.392       .  A
C601        H612   1.084       .  S
C602        C603   1.400       .  A
C602        H613   1.084       .  S
C603        C604   1.423       .  A
C603        C608   1.409       .  A
C604        C605   1.416       .  A
C605        C606   1.400       .  A
C605        H614   1.077       .  S
C606        C607   1.403       .  A
C606        H615   1.083       .  S
C607        C608   1.403       .  A
C608        H616   1.084       .  S
C617        C618   1.401       .  A
C617        C622   1.403       .  A
C618        C619   1.393       .  A
C618        H631   1.083   1_556  S
C619        C620   1.412       .  A
C619        H632   1.078       .  S
C620        C626   1.427       .  A
C620        C621   1.423       .  A
C621        C623   1.401       .  A
C621        C622   1.408       .  A
C622        H633   1.084       .  S
C623        C624   1.393       .  A
C623        H634   1.084       .  S
C624        C625   1.401       .  A
C624        H635   1.084       .  S
C625        C626   1.421       .  A
C625        C630   1.405       .  A
C626        C627   1.416       .  A
C627        C628   1.396       .  A
C627        H636   1.078       .  S
C628        C629   1.397       .  A
C628        H637   1.084       .  S
C629        C630   1.401       .  A
C630        H638   1.085       .  S
C639        C640   1.404       .  A
C639        C644   1.404       .  A
C640        C641   1.395       .  A
C640        H653   1.083       .  S
C641        C642   1.412       .  A
C641        H654   1.077       .  S
C642        C648   1.433   1_655  A
C642        C643   1.425       .  A
C643        C645   1.400       .  A
C643        C644   1.413       .  A
C644        H655   1.084       .  S
C645        C646   1.392   1_655  A
C645        H656   1.084       .  S
C646        C647   1.401       .  A
C646        H657   1.084       .  S
C647        C648   1.421       .  A
C647        C652   1.407       .  A
C648        C649   1.418       .  A
C649        C650   1.400       .  A
C649        H658   1.077       .  S
C650        C651   1.400       .  A
C650        H659   1.083       .  S
C651        C652   1.405       .  A
C652        H660   1.084       .  S
C661        C662   1.399       .  A
C661        C666   1.404       .  A
C662        C663   1.391       .  A
C662        H675   1.084       .  S
C663        C664   1.412       .  A
C663        H676   1.078       .  S
C664        C670   1.425       .  A
C664        C665   1.421       .  A
C665        C667   1.401       .  A
C665        C666   1.408       .  A
C666        H677   1.085       .  S
C667        C668   1.394       .  A
C667        H678   1.084       .  S
C668        C669   1.402       .  A
C668        H679   1.084       .  S
C669        C670   1.421       .  A
C669        C674   1.407       .  A
C670        C671   1.413       .  A
C671        C672   1.391       .  A
C671        H680   1.078       .  S
C672        C673   1.399       .  A
C672        H681   1.083       .  S
C673        C674   1.406       .  A
C674        H682   1.084       .  S
C683        C684   1.402       .  A
C683        C688   1.404       .  A
C684        C685   1.404       .  A
C684        H697   1.083       .  S
C685        C686   1.417       .  A
C685        H698   1.079       .  S
C686        C692   1.436       .  A
C686        C687   1.422       .  A
C687        C689   1.401       .  A
C687        C688   1.410       .  A
C688        H699   1.085       .  S
C689        C690   1.393       .  A
C689        H700   1.084       .  S
C690        C691   1.401       .  A
C690        H701   1.084       .  S
C691        C692   1.423       .  A
C691        C696   1.412       .  A
C692        C693   1.414       .  A
C693        C694   1.401       .  A
C693        H702   1.079       .  S
C694        C695   1.403       .  A
C694        H703   1.084       .  S
C695        C696   1.403       .  A
C696        H704   1.084       .  S
C705        C706   1.402       .  A
C705        C710   1.403       .  A
C706        C707   1.397       .  A
C706        H719   1.083       .  S
C707        C708   1.414       .  A
C707        H720   1.077       .  S
C708        C714   1.434   1_655  A
C708        C709   1.424       .  A
C709        C711   1.399       .  A
C709        C710   1.409       .  A
C710        H721   1.085       .  S
C711        C712   1.391   1_655  A
C711        H722   1.084       .  S
C712        C713   1.400       .  A
C712        H723   1.084       .  S
C713        C714   1.421       .  A
C713        C718   1.406       .  A
C714        C715   1.417       .  A
C715        C716   1.401       .  A
C715        H724   1.077       .  S
C716        C717   1.401       .  A
C716        H725   1.083       .  S
C717        C718   1.405       .  A
C718        H726   1.084       .  S
C727        C728   1.399       .  A
C727        C732   1.405       .  A
C728        C729   1.393       .  A
C728        H741   1.084       .  S
C729        C730   1.414       .  A
C729        H742   1.076       .  S
C730        C736   1.431       .  A
C730        C731   1.422       .  A
C731        C733   1.402       .  A
C731        C732   1.413       .  A
C732        H743   1.084       .  S
C733        C734   1.396       .  A
C733        H744   1.084       .  S
C734        C735   1.402       .  A
C734        H745   1.084       .  S
C735        C736   1.424       .  A
C735        C740   1.415       .  A
C736        C737   1.412       .  A
C737        C738   1.391       .  A
C737        H746   1.076       .  S
C738        C739   1.400       .  A
C738        H747   1.084       .  S
C739        C740   1.404       .  A
C740        H748   1.084       .  S
C749        C750   1.401       .  A
C749        C754   1.404       .  A
C750        C751   1.396       .  A
C750        H763   1.084       .  S
C751        C752   1.415       .  A
C751        H764   1.077       .  S
C752        C758   1.433       .  A
C752        C753   1.423       .  A
C753        C755   1.401       .  A
C753        C754   1.412       .  A
C754        H765   1.084       .  S
C755        C756   1.395       .  A
C755        H766   1.084       .  S
C756        C757   1.401   1_554  A
C756        H767   1.084   1_554  S
C757        C758   1.424   1_556  A
C757        C762   1.414       .  A
C758        C759   1.413   1_554  A
C759        C760   1.394       .  A
C759        H768   1.077       .  S
C760        C761   1.401       .  A
C760        H769   1.084       .  S
C761        C762   1.404       .  A
C762        H770   1.084       .  S
C771        C772   1.401       .  A
C771        C776   1.401       .  A
C772        C773   1.395       .  A
C772        H785   1.083       .  S
C773        C774   1.414       .  A
C773        H786   1.077       .  S
C774        C780   1.428       .  A
C774        C775   1.422       .  A
C775        C777   1.399       .  A
C775        C776   1.403       .  A
C776        H787   1.084       .  S
C777        C778   1.389       .  A
C777        H788   1.084       .  S
C778        C779   1.399       .  A
C778        H789   1.084       .  S
C779        C780   1.421       .  A
C779        C784   1.401       .  A
C780        C781   1.416       .  A
C781        C782   1.397       .  A
C781        H790   1.078       .  S
C782        C783   1.399       .  A
C782        H791   1.083       .  S
C783        C784   1.402       .  A
C784        H792   1.085       .  S
C793        C794   1.400       .  A
C793        C798   1.403       .  A
C794        C795   1.402       .  A
C794        H807   1.083       .  S
C795        C796   1.418       .  A
C795        H808   1.077       .  S
C796        C802   1.433       .  A
C796        C797   1.421       .  A
C797        C799   1.399       .  A
C797        C798   1.403       .  A
C798        H809   1.085       .  S
C799        C800   1.388       .  A
C799        H810   1.084       .  S
C800        C801   1.398       .  A
C800        H811   1.084       .  S
C801        C802   1.424       .  A
C801        C806   1.405       .  A
C802        C803   1.415       .  A
C803        C804   1.399       .  A
C803        H812   1.077       .  S
C804        C805   1.402       .  A
C804        H813   1.083       .  S
C805        C806   1.400       .  A
C806        H814   1.085       .  S
C815        C816   1.403       .  A
C815        C820   1.404       .  A
C816        C817   1.408       .  A
C816        H829   1.083       .  S
C817        C818   1.420       .  A
C817        H830   1.078       .  S
C818        C824   1.439       .  A
C818        C819   1.421       .  A
C819        C821   1.399       .  A
C819        C820   1.402       .  A
C820        H831   1.084       .  S
C821        C822   1.387       .  A
C821        H832   1.084       .  S
C822        C823   1.398       .  A
C822        H833   1.084       .  S
C823        C824   1.424       .  A
C823        C828   1.406       .  A
C824        C825   1.416       .  A
C825        C826   1.405       .  A
C825        H834   1.078       .  S
C826        C827   1.405       .  A
C826        H835   1.083       .  S
C827        C828   1.402       .  A
C828        H836   1.084       .  S
C837        C838   1.400       .  A
C837        C842   1.402       .  A
C838        C839   1.402       .  A
C838        H851   1.083       .  S
C839        C840   1.417       .  A
C839        H852   1.078       .  S
C840        C846   1.433       .  A
C840        C841   1.422       .  A
C841        C843   1.399       .  A
C841        C842   1.402       .  A
C842        H853   1.085       .  S
C843        C844   1.387       .  A
C843        H854   1.084       .  S
C844        C845   1.398       .  A
C844        H855   1.084       .  S
C845        C846   1.423       .  A
C845        C850   1.403       .  A
C846        C847   1.416       .  A
C847        C848   1.400       .  A
C847        H856   1.077       .  S
C848        C849   1.401       .  A
C848        H857   1.083       .  S
C849        C850   1.401       .  A
C850        H858   1.085       .  S
C859        C860   1.403       .  A
C859        C864   1.401       .  A
C860        C861   1.405       .  A
C860        H873   1.083       .  S
C861        C862   1.418       .  A
C861        H874   1.078       .  S
C862        C868   1.435       .  A
C862        C863   1.423       .  A
C863        C865   1.398       .  A
C863        C864   1.401       .  A
C864        H875   1.085       .  S
C865        C866   1.385       .  A
C865        H876   1.084       .  S
C866        C867   1.398       .  A
C866        H877   1.084       .  S
C867        C868   1.423       .  A
C867        C872   1.400       .  A
C868        C869   1.418       .  A
C869        C870   1.405       .  A
C869        H878   1.078       .  S
C870        C871   1.402       .  A
C870        H879   1.083       .  S
C871        C872   1.400       .  A
C872        H880   1.085       .  S
C881        C882   1.402       .  A
C881        C886   1.406       .  A
C882        C883   1.404       .  A
C882        H895   1.083       .  S
C883        C884   1.418       .  A
C883        H896   1.077       .  S
C884        C890   1.436       .  A
C884        C885   1.421       .  A
C885        C887   1.400       .  A
C885        C886   1.406       .  A
C886        H897   1.084       .  S
C887        C888   1.390       .  A
C887        H898   1.084       .  S
C888        C889   1.399       .  A
C888        H899   1.084       .  S
C889        C890   1.424       .  A
C889        C894   1.409       .  A
C890        C891   1.415       .  A
C891        C892   1.401       .  A
C891        H900   1.077       .  S
C892        C893   1.404       .  A
C892        H901   1.083       .  S
C893        C894   1.403       .  A
C894        H902   1.084       .  S
C903        C904   1.400       .  A
C903        C908   1.404       .  A
C904        C905   1.396       .  A
C904        H917   1.083       .  S
C905        C906   1.415       .  A
C905        H918   1.078       .  S
C906        C912   1.427   1_565  A
C906        C907   1.420       .  A
C907        C909   1.401       .  A
C907        C908   1.404       .  A
C908        H919   1.085       .  S
C909        C910   1.392   1_565  A
C909        H920   1.084       .  S
C910        C911   1.400       .  A
C910        H921   1.084       .  S
C911        C912   1.423       .  A
C911        C916   1.407       .  A
C912        C913   1.411       .  A
C913        C914   1.392       .  A
C913        H922   1.078       .  S
C914        C915   1.403       .  A
C914        H923   1.083       .  S
C915        C916   1.402       .  A
C916        H924   1.084       .  S
C925        C926   1.404       .  A
C925        C930   1.404       .  A
C926        C927   1.400       .  A
C926        H939   1.083       .  S
C927        C928   1.415       .  A
C927        H940   1.078       .  S
C928        C934   1.436       .  A
C928        C929   1.423       .  A
C929        C931   1.400       .  A
C929        C930   1.411       .  A
C930        H941   1.084       .  S
C931        C932   1.393       .  A
C931        H942   1.084       .  S
C932        C933   1.400       .  A
C932        H943   1.084       .  S
C933        C934   1.423       .  A
C933        C938   1.412       .  A
C934        C935   1.414       .  A
C935        C936   1.400       .  A
C935        H944   1.078       .  S
C936        C937   1.404       .  A
C936        H945   1.083       .  S
C937        C938   1.404       .  A
C938        H946   1.084       .  S
C947        C948   1.403       .  A
C947        C952   1.404       .  A
C948        C949   1.400       .  A
C948        H961   1.083       .  S
C949        C950   1.416       .  A
C949        H962   1.078       .  S
C950        C956   1.435   1_565  A
C950        C951   1.422       .  A
C951        C953   1.400       .  A
C951        C952   1.408       .  A
C952        H963   1.084       .  S
C953        C954   1.391   1_565  A
C953        H964   1.084       .  S
C954        C955   1.400       .  A
C954        H965   1.084       .  S
C955        C956   1.423       .  A
C955        C960   1.410       .  A
C956        C957   1.415       .  A
C957        C958   1.399       .  A
C957        H966   1.078       .  S
C958        C959   1.403       .  A
C958        H967   1.083       .  S
C959        C960   1.405       .  A
C960        H968   1.085       .  S
C969        C970   1.397   1_554  A
C969        C974   1.397   1_554  A
C970        C971   1.397       .  A
C970        H983   1.083   1_556  S
C971        C972   1.416       .  A
C971        H984   1.078       .  S
C972        C978   1.428       .  A
C972        C973   1.423       .  A
C973        C975   1.398       .  A
C973        C974   1.401       .  A
C974        H985   1.086   1_556  S
C975        C976   1.388       .  A
C975        H986   1.084       .  S
C976        C977   1.398       .  A
C976        H987   1.084       .  S
C977        C978   1.422       .  A
C977        C982   1.401       .  A
C978        C979   1.415       .  A
C979        C980   1.397       .  A
C979        H988   1.078       .  S
C980        C981   1.400       .  A
C980        H989   1.084       .  S
C981        C982   1.398       .  A
C982        H990   1.085       .  S
C991        C992   1.398       .  A
C991        C996   1.397       .  A
C992        C993   1.400       .  A
C992       H1005   1.083       .  S
C993        C994   1.417       .  A
C993       H1006   1.078       .  S
C994       C1000   1.430       .  A
C994        C995   1.423       .  A
C995        C997   1.398       .  A
C995        C996   1.401       .  A
C996       H1007   1.086       .  S
C997        C998   1.387       .  A
C997       H1008   1.084       .  S
C998        C999   1.398       .  A
C998       H1009   1.084       .  S
C999       C1000   1.423       .  A
C999       C1004   1.402       .  A
C1000      C1001   1.416       .  A
C1001      C1002   1.399       .  A
C1001      H1010   1.078       .  S
C1002      C1003   1.401       .  A
C1002      H1011   1.084       .  S
C1003      C1004   1.398       .  A
C1004      H1012   1.085       .  S
C1013      C1014   1.402       .  A
C1013      C1018   1.400       .  A
C1014      C1015   1.395       .  A
C1014      H1027   1.083       .  S
C1015      C1016   1.413       .  A
C1015      H1028   1.077       .  S
C1016      C1022   1.429       .  A
C1016      C1017   1.424       .  A
C1017      C1019   1.398       .  A
C1017      C1018   1.404       .  A
C1018      H1029   1.085       .  S
C1019      C1020   1.387       .  A
C1019      H1030   1.084       .  S
C1020      C1021   1.399       .  A
C1020      H1031   1.084       .  S
C1021      C1022   1.420       .  A
C1021      C1026   1.398       .  A
C1022      C1023   1.418       .  A
C1023      C1024   1.400       .  A
C1023      H1032   1.077       .  S
C1024      C1025   1.399       .  A
C1024      H1033   1.083       .  S
C1025      C1026   1.403       .  A
C1026      H1034   1.085       .  S
C1035      C1036   1.399       .  A
C1035      C1040   1.402       .  A
C1036      C1037   1.395       .  A
C1036      H1049   1.084       .  S
C1037      C1038   1.414       .  A
C1037      H1050   1.078       .  S
C1038      C1044   1.429       .  A
C1038      C1039   1.422       .  A
C1039      C1041   1.400       .  A
C1039      C1040   1.406       .  A
C1040      H1051   1.085       .  S
C1041      C1042   1.392       .  A
C1041      H1052   1.084       .  S
C1042      C1043   1.401       .  A
C1042      H1053   1.084       .  S
C1043      C1044   1.422       .  A
C1043      C1048   1.406       .  A
C1044      C1045   1.416       .  A
C1045      C1046   1.396       .  A
C1045      H1054   1.077       .  S
C1046      C1047   1.397       .  A
C1046      H1055   1.084       .  S
C1047      C1048   1.402       .  A
C1048      H1056   1.085       .  S
C1057      C1058   1.402   1_556  A
C1057      C1062   1.400       .  A
C1058      C1059   1.392       .  A
C1058      H1071   1.084       .  S
C1059      C1060   1.411       .  A
C1059      H1072   1.079       .  S
C1060      C1066   1.423       .  A
C1060      C1061   1.421   1_554  A
C1061      C1063   1.399       .  A
C1061      C1062   1.404       .  A
C1062      H1073   1.085       .  S
C1063      C1064   1.391       .  A
C1063      H1074   1.084       .  S
C1064      C1065   1.401   1_556  A
C1064      H1075   1.084       .  S
C1065      C1066   1.420       .  A
C1065      C1070   1.403       .  A
C1066      C1067   1.413       .  A
C1067      C1068   1.393       .  A
C1067      H1076   1.078       .  S
C1068      C1069   1.401       .  A
C1068      H1077   1.083       .  S
C1069      C1070   1.403       .  A
C1070      H1078   1.085       .  S
C1079      C1080   1.403       .  A
C1079      C1084   1.408       .  A
C1080      C1081   1.393       .  A
C1080      H1093   1.083       .  S
C1081      C1082   1.412       .  A
C1081      H1094   1.078       .  S
C1082      C1088   1.431       .  A
C1082      C1083   1.421       .  A
C1083      C1085   1.403       .  A
C1083      C1084   1.416       .  A
C1084      H1095   1.084       .  S
C1085      C1086   1.398       .  A
C1085      H1096   1.084       .  S
C1086      C1087   1.403       .  A
C1086      H1097   1.083       .  S
C1087      C1088   1.422       .  A
C1087      C1092   1.416       .  A
C1088      C1089   1.412       .  A
C1089      C1090   1.393       .  A
C1089      H1098   1.077       .  S
C1090      C1091   1.403       .  A
C1090      H1099   1.084       .  S
C1091      C1092   1.408       .  A
C1092      H1100   1.084       .  S
C1101      C1102   1.403       .  A
C1101      C1106   1.403       .  A
C1102      C1103   1.402       .  A
C1102      H1115   1.084       .  S
C1103      C1104   1.415       .  A
C1103      H1116   1.079       .  S
C1104      C1110   1.436       .  A
C1104      C1105   1.423       .  A
C1105      C1107   1.400       .  A
C1105      C1106   1.409       .  A
C1106      H1117   1.085       .  S
C1107      C1108   1.391       .  A
C1107      H1118   1.084       .  S
C1108      C1109   1.401       .  A
C1108      H1119   1.083       .  S
C1109      C1110   1.422       .  A
C1109      C1114   1.407       .  A
C1110      C1111   1.419       .  A
C1111      C1112   1.405       .  A
C1111      H1120   1.078       .  S
C1112      C1113   1.399       .  A
C1112      H1121   1.083       .  S
C1113      C1114   1.403       .  A
C1114      H1122   1.085       .  S
C1123      C1124   1.402       .  A
C1123      C1128   1.403       .  A
C1124      C1125   1.406       .  A
C1124      H1137   1.083       .  S
C1125      C1126   1.419       .  A
C1125      H1138   1.078       .  S
C1126      C1132   1.434       .  A
C1126      C1127   1.421       .  A
C1127      C1129   1.398       .  A
C1127      C1128   1.398       .  A
C1128      H1139   1.085       .  S
C1129      C1130   1.384       .  A
C1129      H1140   1.084       .  S
C1130      C1131   1.397       .  A
C1130      H1141   1.084       .  S
C1131      C1132   1.423       .  A
C1131      C1136   1.400       .  A
C1132      C1133   1.416       .  A
C1133      C1134   1.403       .  A
C1133      H1142   1.078       .  S
C1134      C1135   1.403       .  A
C1134      H1143   1.083       .  S
C1135      C1136   1.400       .  A
C1136      H1144   1.084       .  S
C1145      C1146   1.399       .  A
C1145      C1150   1.404       .  A
C1146      C1147   1.389       .  A
C1146      H1159   1.084       .  S
C1147      C1148   1.413       .  A
C1147      H1160   1.077       .  S
C1148      C1154   1.428       .  A
C1148      C1149   1.422       .  A
C1149      C1151   1.402       .  A
C1149      C1150   1.412       .  A
C1150      H1161   1.085       .  S
C1151      C1152   1.395       .  A
C1151      H1162   1.084       .  S
C1152      C1153   1.401       .  A
C1152      H1163   1.084       .  S
C1153      C1154   1.424       .  A
C1153      C1158   1.412       .  A
C1154      C1155   1.412       .  A
C1155      C1156   1.388       .  A
C1155      H1164   1.076       .  S
C1156      C1157   1.399       .  A
C1156      H1165   1.084       .  S
C1157      C1158   1.402       .  A
C1158      H1166   1.084       .  S
C1167      C1168   1.399       .  A
C1167      C1172   1.402       .  A
C1168      C1169   1.392       .  A
C1168      H1181   1.083       .  S
C1169      C1170   1.414       .  A
C1169      H1182   1.078       .  S
C1170      C1176   1.423       .  A
C1170      C1171   1.421       .  A
C1171      C1173   1.400       .  A
C1171      C1172   1.401       .  A
C1172      H1183   1.085       .  S
C1173      C1174   1.389       .  A
C1173      H1184   1.084       .  S
C1174      C1175   1.399       .  A
C1174      H1185   1.084       .  S
C1175      C1176   1.422       .  A
C1175      C1180   1.401       .  A
C1176      C1177   1.413       .  A
C1177      C1178   1.391       .  A
C1177      H1186   1.078       .  S
C1178      C1179   1.399       .  A
C1178      H1187   1.084       .  S
C1179      C1180   1.399       .  A
C1180      H1188   1.085       .  S
C1189      C1190   1.401       .  A
C1189      C1194   1.402       .  A
C1190      C1191   1.400       .  A
C1190      H1203   1.083       .  S
C1191      C1192   1.416       .  A
C1191      H1204   1.077       .  S
C1192      C1198   1.432       .  A
C1192      C1193   1.422       .  A
C1193      C1195   1.399       .  A
C1193      C1194   1.402       .  A
C1194      H1205   1.084       .  S
C1195      C1196   1.387       .  A
C1195      H1206   1.084       .  S
C1196      C1197   1.398       .  A
C1196      H1207   1.084       .  S
C1197      C1198   1.422       .  A
C1197      C1202   1.401       .  A
C1198      C1199   1.416       .  A
C1199      C1200   1.400       .  A
C1199      H1208   1.078       .  S
C1200      C1201   1.401       .  A
C1200      H1209   1.083       .  S
C1201      C1202   1.401       .  A
C1202      H1210   1.085       .  S
C1211      C1212   1.400       .  A
C1211      C1216   1.403       .  A
C1212      C1213   1.401   1_554  A
C1212      H1225   1.084       .  S
C1213      C1214   1.417   1_556  A
C1213      H1226   1.078       .  S
C1214      C1220   1.433   1_554  A
C1214      C1215   1.422       .  A
C1215      C1217   1.400       .  A
C1215      C1216   1.405       .  A
C1216      H1227   1.085       .  S
C1217      C1218   1.390       .  A
C1217      H1228   1.084       .  S
C1218      C1219   1.399       .  A
C1218      H1229   1.084       .  S
C1219      C1220   1.423   1_554  A
C1219      C1224   1.407   1_554  A
C1220      C1221   1.415       .  A
C1221      C1222   1.398       .  A
C1221      H1230   1.078       .  S
C1222      C1223   1.401       .  A
C1222      H1231   1.083       .  S
C1223      C1224   1.402       .  A
C1224      H1232   1.085       .  S
C1233      C1234   1.401       .  A
C1233      C1238   1.401       .  A
C1234      C1235   1.395       .  A
C1234      H1247   1.083       .  S
C1235      C1236   1.415       .  A
C1235      H1248   1.077       .  S
C1236      C1242   1.428   1_565  A
C1236      C1237   1.421       .  A
C1237      C1239   1.399       .  A
C1237      C1238   1.403       .  A
C1238      H1249   1.084       .  S
C1239      C1240   1.389   1_565  A
C1239      H1250   1.084       .  S
C1240      C1241   1.398       .  A
C1240      H1251   1.084       .  S
C1241      C1242   1.423       .  A
C1241      C1246   1.406       .  A
C1242      C1243   1.412       .  A
C1243      C1244   1.393       .  A
C1243      H1252   1.077       .  S
C1244      C1245   1.403       .  A
C1244      H1253   1.083       .  S
C1245      C1246   1.400       .  A
C1246      H1254   1.084       .  S
C1255      C1256   1.399       .  A
C1255      C1260   1.400       .  A
C1256      C1257   1.398       .  A
C1256      H1269   1.084       .  S
C1257      C1258   1.416       .  A
C1257      H1270   1.078       .  S
C1258      C1264   1.429       .  A
C1258      C1259   1.422       .  A
C1259      C1261   1.400       .  A
C1259      C1260   1.403       .  A
C1260      H1271   1.085       .  S
C1261      C1262   1.390       .  A
C1261      H1272   1.084       .  S
C1262      C1263   1.399       .  A
C1262      H1273   1.084       .  S
C1263      C1264   1.423       .  A
C1263      C1268   1.406       .  A
C1264      C1265   1.413       .  A
C1265      C1266   1.395       .  A
C1265      H1274   1.078       .  S
C1266      C1267   1.401       .  A
C1266      H1275   1.084       .  S
C1267      C1268   1.400       .  A
C1268      H1276   1.085       .  S
C1277      C1278   1.404       .  A
C1277      C1282   1.408       .  A
C1278      C1279   1.399       .  A
C1278      H1291   1.084       .  S
C1279      C1280   1.414       .  A
C1279      H1292   1.077       .  S
C1280      C1286   1.440       .  A
C1280      C1281   1.423       .  A
C1281      C1283   1.402       .  A
C1281      C1282   1.419       .  A
C1282      H1293   1.084       .  S
C1283      C1284   1.397       .  A
C1283      H1294   1.083       .  S
C1284      C1285   1.402       .  A
C1284      H1295   1.084       .  S
C1285      C1286   1.423       .  A
C1285      C1290   1.419       .  A
C1286      C1287   1.415       .  A
C1287      C1288   1.400       .  A
C1287      H1296   1.077       .  S
C1288      C1289   1.405       .  A
C1288      H1297   1.083       .  S
C1289      C1290   1.408       .  A
C1290      H1298   1.084       .  S
C1299      C1300   1.400       .  A
C1299      C1304   1.403       .  A
C1300      C1301   1.401       .  A
C1300      H1313   1.084       .  S
C1301      C1302   1.418       .  A
C1301      H1314   1.077       .  S
C1302      C1308   1.436       .  A
C1302      C1303   1.422       .  A
C1303      C1305   1.401       .  A
C1303      C1304   1.410       .  A
C1304      H1315   1.085       .  S
C1305      C1306   1.393       .  A
C1305      H1316   1.083       .  S
C1306      C1307   1.400       .  A
C1306      H1317   1.084       .  S
C1307      C1308   1.424       .  A
C1307      C1312   1.412       .  A
C1308      C1309   1.414       .  A
C1309      C1310   1.399       .  A
C1309      H1318   1.078       .  S
C1310      C1311   1.404       .  A
C1310      H1319   1.083       .  S
C1311      C1312   1.404       .  A
C1312      H1320   1.084       .  S
C1321      C1322   1.402       .  A
C1321      C1326   1.404       .  A
C1322      C1323   1.401       .  A
C1322      H1335   1.083       .  S
C1323      C1324   1.417       .  A
C1323      H1336   1.077       .  S
C1324      C1330   1.436   1_565  A
C1324      C1325   1.422       .  A
C1325      C1327   1.400       .  A
C1325      C1326   1.408       .  A
C1326      H1337   1.084       .  S
C1327      C1328   1.391   1_565  A
C1327      H1338   1.084       .  S
C1328      C1329   1.400       .  A
C1328      H1339   1.084       .  S
C1329      C1330   1.423       .  A
C1329      C1334   1.408       .  A
C1330      C1331   1.416       .  A
C1331      C1332   1.401       .  A
C1331      H1340   1.078       .  S
C1332      C1333   1.402       .  A
C1332      H1341   1.083       .  S
C1333      C1334   1.404       .  A
C1334      H1342   1.085       .  S
C1343      C1344   1.399       .  A
C1343      C1348   1.402       .  A
C1344      C1345   1.394       .  A
C1344      H1357   1.084       .  S
C1345      C1346   1.414       .  A
C1345      H1358   1.077       .  S
C1346      C1352   1.428       .  A
C1346      C1347   1.423       .  A
C1347      C1349   1.401       .  A
C1347      C1348   1.407       .  A
C1348      H1359   1.085       .  S
C1349      C1350   1.392       .  A
C1349      H1360   1.084       .  S
C1350      C1351   1.400       .  A
C1350      H1361   1.084       .  S
C1351      C1352   1.422       .  A
C1351      C1356   1.406       .  A
C1352      C1353   1.415       .  A
C1353      C1354   1.396       .  A
C1353      H1362   1.077       .  S
C1354      C1355   1.397       .  A
C1354      H1363   1.084       .  S
C1355      C1356   1.400       .  A
C1356      H1364   1.085       .  S
C1365      C1366   1.396   1_556  A
C1365      C1370   1.399   1_556  A
C1366      C1367   1.392       .  A
C1366      H1379   1.084       .  S
C1367      C1368   1.414       .  A
C1367      H1380   1.077       .  S
C1368      C1374   1.425       .  A
C1368      C1369   1.423       .  A
C1369      C1371   1.400       .  A
C1369      C1370   1.405       .  A
C1370      H1381   1.085   1_554  S
C1371      C1372   1.391       .  A
C1371      H1382   1.084       .  S
C1372      C1373   1.400       .  A
C1372      H1383   1.084       .  S
C1373      C1374   1.423       .  A
C1373      C1378   1.406       .  A
C1374      C1375   1.413       .  A
C1375      C1376   1.390       .  A
C1375      H1384   1.077       .  S
C1376      C1377   1.397       .  A
C1376      H1385   1.084       .  S
C1377      C1378   1.400       .  A
C1378      H1386   1.085       .  S
C1387      C1388   1.397       .  A
C1387      C1392   1.402       .  A
C1388      C1389   1.398       .  A
C1388      H1401   1.083       .  S
C1389      C1390   1.417       .  A
C1389      H1402   1.078       .  S
C1390      C1396   1.427       .  A
C1390      C1391   1.421       .  A
C1391      C1393   1.401       .  A
C1391      C1392   1.403       .  A
C1392      H1403   1.085       .  S
C1393      C1394   1.392       .  A
C1393      H1404   1.084       .  S
C1394      C1395   1.400       .  A
C1394      H1405   1.084       .  S
C1395      C1396   1.422       .  A
C1395      C1400   1.408       .  A
C1396      C1397   1.411       .  A
C1397      C1398   1.394       .  A
C1397      H1406   1.079       .  S
C1398      C1399   1.401       .  A
C1398      H1407   1.084       .  S
C1399      C1400   1.401       .  A
C1400      H1408   1.085       .  S
