geometry optimzed in LAMMPS
_audit_creation_date              2020-12-01 
_audit_creation_method            'lammps2cif' 
_symmetry_space_group_name_H-M    'P1' 
_symmetry_Int_Tables_number       1 
_symmetry_cell_setting            triclinic 
loop_ 
_symmetry_equiv_pos_as_xyz 
  x,y,z 
_cell_length_a                    47.165003 
_cell_length_b                    47.26472594304562 
_cell_length_c                    31.471823095297495 
_cell_angle_alpha                 90.0942590516398 
_cell_angle_beta                  89.94473878260507 
_cell_angle_gamma                 120.04208168997813 
loop_ 
_atom_site_label 
_atom_site_type_symbol 
_atom_site_fract_x 
_atom_site_fract_y 
_atom_site_fract_z 
_atom_site_charge 
Fe1        Fe  0.61047670  0.13662544  0.03862260     1.65800
Fe2        Fe  0.53947829  0.07326453  0.00771487     1.73200
Fe3        Fe  0.61098106  0.08059835  0.97399882     1.54400
O4          O  0.65066619  0.12774915  0.96172997    -0.81500
O5          O  0.54001651  0.03240153  0.02588738    -0.79900
O6          O  0.63281618  0.16058668  0.98434818    -0.84100
O7          O  0.64862734  0.12768675  0.05223429    -0.78900
O8          O  0.58898004  0.08479686  0.92073147    -0.80700
O9          O  0.53697673  0.08210336  0.07229501    -0.83400
C10         C  0.65492997  0.10445252  0.04881310     0.97300
C11         C  0.65298774  0.15579344  0.96361849     1.04800
O12         O  0.58686801  0.09664687  0.00714401    -1.12400
O13         O  0.53662381  0.11318748  0.98967815    -0.74800
O14         O  0.57640300  0.15180084  0.02851417    -0.78300
O15         O  0.63628959  0.07866449  0.02731834    -0.79000
C16         C  0.55162422  0.14192921  0.00435430     0.96200
O17         O  0.58842395  0.11364166  0.09373557    -0.77000
O18         O  0.53695935  0.06241315  0.94257204    -0.82200
C19         C  0.54599625  0.01665556  0.99860059     0.98900
C20         C  0.55883405  0.07408678  0.91357179     1.04800
O21         O  0.57272350  0.03076633  0.97739557    -0.77800
C22         C  0.55829830  0.09478815  0.10171246     1.03100
Fe23       Fe  0.52710426  0.14080008  0.53739871     1.65800
Fe24       Fe  0.52879318  0.07358413  0.50890940     1.73200
Fe25       Fe  0.46624483  0.08418976  0.47775077     1.54400
O26         O  0.44175900  0.08407655  0.53314023    -0.81500
O27         O  0.51982167  0.06418523  0.44305790    -0.79900
O28         O  0.48105171  0.13335466  0.55430668    -0.84100
O29         O  0.52703319  0.16336230  0.48240729    -0.78900
O30         O  0.45264932  0.03351693  0.47857166    -0.80700
O31         O  0.57340346  0.11125220  0.49176765    -0.83400
C32         C  0.50082128  0.15934901  0.46612835     0.97300
C33         C  0.45090847  0.11093891  0.55324889     1.04800
O34         O  0.50760608  0.09951495  0.50833357    -1.12400
O35         O  0.53932190  0.08107412  0.57377048    -0.74800
O36         O  0.52783792  0.11959712  0.59341142    -0.78300
O37         O  0.47455838  0.13168053  0.46668865    -0.79000
C38         C  0.53421509  0.09720146  0.60230121     0.96200
O39         O  0.57536724  0.15406176  0.52319049    -0.77000
O40         O  0.48596300  0.03460333  0.52707962    -0.82200
C41         C  0.50801908  0.07459600  0.41432482     0.98900
C42         C  0.46534299  0.01915254  0.49871198     1.04800
O43         O  0.49027803  0.08699278  0.42331319    -0.77800
C44         C  0.58875221  0.14112345  0.50159771     1.03100
Fe45       Fe  0.52184577  0.35554652  0.03264003     1.65800
Fe46       Fe  0.52648835  0.42591090  0.00680522     1.73200
Fe47       Fe  0.46356559  0.35476832  0.97033639     1.54400
O48         O  0.47137632  0.31545489  0.95760683    -0.81500
O49         O  0.48284477  0.42005173  0.02473755    -0.79900
O50         O  0.52300798  0.33431863  0.97671933    -0.84100
O51         O  0.47498205  0.31697385  0.04632303    -0.78900
O52         O  0.48933610  0.37776289  0.91714004    -0.80700
O53         O  0.53647535  0.42706616  0.07162282    -0.83400
C54         C  0.44505102  0.30987385  0.04417246     0.97300
C55         C  0.49718962  0.31318561  0.95837152     1.04800
O56         O  0.50438369  0.37889741  0.00314846    -1.12400
O57         O  0.57124949  0.43277418  0.98983114    -0.74800
O58         O  0.57076726  0.39059546  0.02172414    -0.78300
O59         O  0.43693303  0.32838553  0.02396521    -0.79000
C60         C  0.58547007  0.41741233  0.00136117     0.96200
O61         O  0.52126706  0.37601769  0.08991536    -0.77000
O62         O  0.51882775  0.42906542  0.94112756    -0.82200
C63         C  0.46571511  0.41937521  0.99408403     0.98900
C64         C  0.50734013  0.40829385  0.91064297     1.04800
O65         O  0.45112038  0.39287248  0.97279286    -0.77800
C66         C  0.52980043  0.40527365  0.09979494     1.03100
Fe67       Fe  0.61642505  0.45162232  0.53596925     1.65800
Fe68       Fe  0.54500385  0.44486809  0.50808264     1.73200
Fe69       Fe  0.61620210  0.50923610  0.47372195     1.54400
O70         O  0.64105976  0.53583186  0.52807295    -0.81500
O71         O  0.54296317  0.45097883  0.44182283    -0.79900
O72         O  0.65351687  0.49862733  0.55115848    -0.84100
O73         O  0.63873070  0.45181021  0.48057123    -0.78900
O74         O  0.57757292  0.52052848  0.47441568    -0.80700
O75         O  0.54009523  0.40061075  0.49322553    -0.83400
C76         C  0.65910460  0.47771439  0.46186308     0.97300
C77         C  0.65915278  0.52796198  0.54982879     1.04800
O78         O  0.59231049  0.46836263  0.50629084    -1.12400
O79         O  0.54350816  0.43640176  0.57334992    -0.74800
O80         O  0.59446555  0.45026537  0.59256479    -0.78300
O81         O  0.65664250  0.50328394  0.46216896    -0.79000
C82         C  0.56507918  0.44187338  0.60157488     0.96200
O83         O  0.58336705  0.40269908  0.52403583    -0.77000
O84         O  0.54724347  0.48739214  0.52387818    -0.82200
C85         C  0.56460555  0.46276542  0.41232335     0.98900
C86         C  0.55018141  0.50591377  0.49373547     1.04800
O87         O  0.59459445  0.48313139  0.41997035    -0.77800
C88         C  0.55661084  0.38740563  0.50368110     1.03100
Fe89       Fe  0.82350628  0.34947887  0.52363942     1.65800
Fe90       Fe  0.88920882  0.42176387  0.50433070     1.73200
Fe91       Fe  0.88707689  0.35279889  0.47031109     1.54400
O92         O  0.88510645  0.32683883  0.52544651    -0.81500
O93         O  0.90254224  0.42604778  0.43906903    -0.79900
O94         O  0.83350433  0.31301984  0.54095439    -0.84100
O95         O  0.80662084  0.32853093  0.46542484    -0.78900
O96         O  0.93648684  0.39249919  0.47665252    -0.80700
O97         O  0.85123879  0.42718028  0.48425871    -0.83400
C98         C  0.81375479  0.30807482  0.45035644     0.97300
C99         C  0.85727298  0.30736922  0.54279788     1.04800
O100        O  0.86633946  0.37485754  0.49948002    -1.12400
O101        O  0.87698068  0.42116958  0.56804063    -0.74800
O102        O  0.83906986  0.36982155  0.58301735    -0.78300
O103        O  0.84229840  0.31188352  0.45394180    -0.79000
C104        C  0.85932636  0.39883547  0.59458256     0.96200
O105        O  0.80795005  0.38223592  0.50847541    -0.77000
O106        O  0.92698074  0.41764932  0.52658479    -0.82200
C107        C  0.89457117  0.40498463  0.40898954     0.98900
C108        C  0.94591789  0.41837795  0.49844178     1.04800
O109        O  0.88563229  0.37513490  0.41580374    -0.77800
C110        C  0.82080110  0.40999791  0.49049887     1.03100
Fe111      Fe  0.82823392  0.44737329  0.03235437     1.65800
Fe112      Fe  0.89165854  0.43973160  0.00112442     1.73200
Fe113      Fe  0.88625993  0.50565867  0.97066085     1.54400
O114        O  0.83990564  0.50022005  0.95996582    -0.81500
O115        O  0.93273590  0.48124330  0.01831336    -0.79900
O116        O  0.80542836  0.44879112  0.97805636    -0.84100
O117        O  0.83894623  0.49431472  0.04922655    -0.78900
O118        O  0.88140237  0.48069538  0.91571252    -0.80700
O119        O  0.88475993  0.42955882  0.06641572    -0.83400
C120        C  0.86271427  0.52366685  0.04828072     0.97300
C121        C  0.81141476  0.47506386  0.95996584     1.04800
O122        O  0.86875930  0.46410307  0.00165745    -1.12400
O123        O  0.85143119  0.39650433  0.98435350    -0.74800
O124        O  0.81132103  0.39840999  0.01862052    -0.78300
O125        O  0.88854104  0.53166373  0.02604048    -0.79000
C126        C  0.82183249  0.38351013  0.99561117     0.96200
O127        O  0.84971223  0.44516296  0.08796805    -0.77000
O128        O  0.90014045  0.44754921  0.93497736    -0.82200
C129        C  0.94872703  0.50125848  0.98956528     0.98900
C130        C  0.89053233  0.46024948  0.90648173     1.04800
O131        O  0.93600991  0.51623990  0.97109503    -0.77800
C132        C  0.87040728  0.43614491  0.09599787     1.03100
Fe133      Fe  0.49379153  0.77680820  0.36479324     1.65800
Fe134      Fe  0.56265051  0.77699170  0.34129710     1.73200
Fe135      Fe  0.55212378  0.83916794  0.30852011     1.54400
O136        O  0.50494620  0.83061711  0.29525564    -0.81500
O137        O  0.59829924  0.82088753  0.36151747    -0.79900
O138        O  0.47343342  0.77777874  0.30805986    -0.84100
O139        O  0.50005414  0.82220059  0.38230591    -0.78900
O140        O  0.55093315  0.81560060  0.25408590    -0.80700
O141        O  0.55363215  0.76627500  0.40598454    -0.83400
C142        C  0.52201917  0.85236678  0.38332060     0.97300
C143        C  0.47746182  0.80429328  0.29305021     1.04800
O144        O  0.53591215  0.79714193  0.33818062    -1.12400
O145        O  0.52691778  0.73167229  0.32294637    -0.74800
O146        O  0.48213539  0.72925355  0.34964231    -0.78300
O147        O  0.54967443  0.86265689  0.36419718    -0.79000
C148        C  0.49652349  0.71633910  0.33020950     0.96200
O149        O  0.51288438  0.77531462  0.42260936    -0.77000
O150        O  0.57314711  0.78583336  0.27504805    -0.82200
C151        C  0.61539128  0.83907134  0.33218316     0.98900
C152        C  0.56288617  0.79744553  0.24565793     1.04800
O153        O  0.60324196  0.85334622  0.31097081    -0.77800
C154        C  0.53557968  0.76979883  0.43327037     1.03100
Fe155      Fe  0.49871282  0.69010882  0.86848247     1.65800
Fe156      Fe  0.56394624  0.76083014  0.84002875     1.73200
Fe157      Fe  0.55450161  0.68929621  0.80296767     1.54400
O158        O  0.55645832  0.66364106  0.85607033    -0.81500
O159        O  0.57240883  0.76354565  0.77345706    -0.79900
O160        O  0.50739909  0.65175126  0.88117076    -0.84100
O161        O  0.47471015  0.66860584  0.81359413    -0.78900
O162        O  0.60481597  0.72682280  0.80353180    -0.80700
O163        O  0.52516881  0.76704797  0.82642766    -0.83400
C164        C  0.47958505  0.64893213  0.79183569     0.97300
C165        C  0.53091049  0.64578385  0.87859888     1.04800
O166        O  0.53896793  0.71363674  0.83722203    -1.12400
O167        O  0.55739634  0.76189698  0.90591538    -0.74800
O168        O  0.52124464  0.71087436  0.92479295    -0.78300
O169        O  0.50722081  0.65028491  0.79114363    -0.79000
C170        C  0.54260349  0.74001263  0.93428250     0.96200
O171        O  0.48428373  0.72480752  0.85931983    -0.77000
O172        O  0.60362767  0.75714569  0.85464469    -0.82200
C173        C  0.56316684  0.74235161  0.74335912     0.98900
C174        C  0.61858702  0.75370953  0.82403407     1.04800
O175        O  0.55058457  0.71194920  0.75025319    -0.77800
C176        C  0.49581197  0.75155978  0.83892168     1.03100
Fe177      Fe  0.19098321  0.47626589  0.85361182     1.65800
Fe178      Fe  0.19570833  0.41129798  0.82374648     1.73200
Fe179      Fe  0.13168879  0.41953404  0.79177690     1.54400
O180        O  0.10596620  0.41935844  0.84675579    -0.81500
O181        O  0.18599711  0.40012082  0.75846188    -0.79900
O182        O  0.14498478  0.46802110  0.86933094    -0.84100
O183        O  0.19099869  0.49952910  0.79911183    -0.78900
O184        O  0.11946768  0.36918206  0.79441996    -0.80700
O185        O  0.23923850  0.45006315  0.80468048    -0.83400
C186        C  0.16484934  0.49519993  0.78195788     0.97300
C187        C  0.11510174  0.44574802  0.86820377     1.04800
O188        O  0.17297685  0.43578136  0.82304898    -1.12400
O189        O  0.20757142  0.41972286  0.88845205    -0.74800
O190        O  0.19101390  0.45410478  0.90943464    -0.78300
O191        O  0.13943824  0.46684579  0.77994857    -0.79000
C192        C  0.19972104  0.43331539  0.91762559     0.96200
O193        O  0.23945593  0.49047546  0.84099948    -0.77000
O194        O  0.15352921  0.37232898  0.84350060    -0.82200
C195        C  0.17391230  0.40945538  0.72888128     0.98900
C196        C  0.13293183  0.35593982  0.81551669     1.04800
O197        O  0.15608502  0.42199356  0.73696047    -0.77800
C198        C  0.25338185  0.47943541  0.81704869     1.03100
Fe199      Fe  0.28187635  0.47320923  0.35328355     1.65800
Fe200      Fe  0.21237519  0.40749943  0.32379915     1.73200
Fe201      Fe  0.28458708  0.41729059  0.28928182     1.54400
O202        O  0.32402928  0.46465385  0.27865845    -0.81500
O203        O  0.21891049  0.37012537  0.34152800    -0.79900
O204        O  0.30525410  0.49722096  0.29893384    -0.84100
O205        O  0.32001733  0.46481326  0.36828683    -0.78900
O206        O  0.26306745  0.42143704  0.23525062    -0.80700
O207        O  0.20932831  0.41432356  0.38866559    -0.83400
C208        C  0.32729032  0.44219161  0.36595094     0.97300
C209        C  0.32659534  0.49278269  0.28043820     1.04800
O210        O  0.25950401  0.43313418  0.32179668    -1.12400
O211        O  0.20498633  0.44522704  0.30817988    -0.74800
O212        O  0.24672263  0.48683564  0.34143918    -0.78300
O213        O  0.30970414  0.41614877  0.34397233    -0.79000
C214        C  0.22003843  0.47464291  0.32052322     0.96200
O215        O  0.25978111  0.45073233  0.40933482    -0.77000
O216        O  0.21094278  0.39867043  0.25743497    -0.82200
C217        C  0.21998315  0.35394516  0.31090908     0.98900
C218        C  0.23270588  0.40964472  0.22804473     1.04800
O219        O  0.24641845  0.36646318  0.28932923    -0.77800
C220        C  0.23044143  0.42914676  0.41771648     1.03100
Fe221      Fe  0.18698725  0.68818011  0.38292051     1.65800
Fe222      Fe  0.19542743  0.75960108  0.35283650     1.73200
Fe223      Fe  0.13086021  0.68939998  0.31794063     1.54400
O224        O  0.13653155  0.64857704  0.30618084    -0.81500
O225        O  0.15312194  0.75690318  0.37096455    -0.79900
O226        O  0.18679297  0.66422541  0.32898223    -0.84100
O227        O  0.13940818  0.65175592  0.39760177    -0.78900
O228        O  0.15731017  0.71072541  0.26446957    -0.80700
O229        O  0.20599180  0.76222476  0.41724463    -0.83400
C230        C  0.11013811  0.64633995  0.39368449     0.97300
C231        C  0.16141033  0.64475663  0.30832226     1.04800
O232        O  0.17145323  0.71243138  0.35114537    -1.12400
O233        O  0.23863975  0.76293838  0.33595898    -0.74800
O234        O  0.23622621  0.72084285  0.37051792    -0.78300
O235        O  0.10358082  0.66516540  0.37167918    -0.79000
C236        C  0.25160572  0.74647370  0.34798852     0.96200
O237        O  0.18808944  0.71116761  0.43880191    -0.77000
O238        O  0.18783550  0.76235735  0.28723490    -0.82200
C239        C  0.13489186  0.75528810  0.34113302     0.98900
C240        C  0.17682605  0.74088064  0.25764549     1.04800
O241        O  0.12055916  0.72882561  0.31970552    -0.77800
C242        C  0.19822669  0.74108889  0.44649940     1.03100
Fe243      Fe  0.27259994  0.77594451  0.88165342     1.65800
Fe244      Fe  0.20445270  0.77539743  0.85211044     1.73200
Fe245      Fe  0.27816728  0.83632982  0.81967398     1.54400
O246        O  0.30335922  0.86122001  0.87451229    -0.81500
O247        O  0.20389916  0.78441740  0.78626363    -0.79900
O248        O  0.31215867  0.82154690  0.89717335    -0.84100
O249        O  0.29545126  0.77450056  0.82732998    -0.78900
O250        O  0.24191072  0.85111779  0.82045366    -0.80700
O251        O  0.19630731  0.73036490  0.83460235    -0.83400
C252        C  0.31747296  0.80008487  0.80945850     0.97300
C253        C  0.32077265  0.85178743  0.89475363     1.04800
O254        O  0.25156934  0.79546592  0.85100515    -1.12400
O255        O  0.20085515  0.76472821  0.91705725    -0.74800
O256        O  0.25103776  0.77723249  0.93734167    -0.78300
O257        O  0.31625248  0.82641351  0.80862838    -0.79000
C258        C  0.22208922  0.77064190  0.94590742     0.96200
O259        O  0.23627990  0.72789422  0.86872937    -0.77000
O260        O  0.21109578  0.81920322  0.87044542    -0.82200
C261        C  0.22583416  0.79562241  0.75707997     0.98900
C262        C  0.21489059  0.83826995  0.84078813     1.04800
O263        O  0.25623895  0.81215131  0.76541872    -0.77800
C264        C  0.21034799  0.71487102  0.84629256     1.03100
Fe265      Fe  0.16673759  0.11485710  0.70845662     1.65800
Fe266      Fe  0.23036082  0.10735880  0.67862970     1.73200
Fe267      Fe  0.22443444  0.17281713  0.64678304     1.54400
O268        O  0.17764402  0.16504025  0.63331750    -0.81500
O269        O  0.27167080  0.14857503  0.69694453    -0.79900
O270        O  0.14381240  0.11365756  0.65293810    -0.84100
O271        O  0.17481851  0.16105415  0.72170189    -0.78900
O272        O  0.22243933  0.14860191  0.59205418    -0.80700
O273        O  0.22166755  0.09680961  0.74396369    -0.83400
C274        C  0.19740412  0.19072339  0.72054854     0.97300
C275        C  0.14942788  0.13946526  0.63371539     1.04800
O276        O  0.20744905  0.13172167  0.67820762    -1.12400
O277        O  0.18987865  0.06441237  0.66036004    -0.74800
O278        O  0.15165829  0.06603605  0.69947956    -0.78300
O279        O  0.22435332  0.19909473  0.70088622    -0.79000
C280        C  0.16117183  0.05099922  0.67532871     0.96200
O281        O  0.18899781  0.11582893  0.76444034    -0.77000
O282        O  0.24127651  0.11593644  0.61304623    -0.82200
C283        C  0.28760062  0.17044960  0.67000190     0.98900
C284        C  0.23340617  0.12951117  0.58370949     1.04800
O285        O  0.27425405  0.18470528  0.65105915    -0.77800
C286        C  0.20815291  0.10507907  0.77297541     1.03100
Fe287      Fe  0.16666037  0.02380127  0.20715810     1.65800
Fe288      Fe  0.23385958  0.09220751  0.17726843     1.73200
Fe289      Fe  0.22221050  0.01897928  0.14509579     1.54400
O290        O  0.22415511  0.99607994  0.20089833    -0.81500
O291        O  0.24252144  0.09204969  0.11080597    -0.79900
O292        O  0.17553775  0.98645840  0.22532822    -0.84100
O293        O  0.14261272  0.99910031  0.15351677    -0.78900
O294        O  0.27315252  0.05651647  0.14358447    -0.80700
O295        O  0.19671580  0.10050386  0.16127134    -0.83400
C296        C  0.14630235  0.97663797  0.13747660     0.97300
C297        C  0.19860218  0.97971104  0.22411186     1.04800
O298        O  0.20713721  0.04519439  0.17632020    -1.12400
O299        O  0.22745634  0.09647165  0.24224435    -0.74800
O300        O  0.18804913  0.04723564  0.26297158    -0.78300
O301        O  0.17435809  0.97881575  0.13624006    -0.79000
C302        C  0.21026568  0.07625557  0.27116729     0.96200
O303        O  0.15350761  0.05853598  0.19152538    -0.77000
O304        O  0.27088612  0.08516978  0.19505900    -0.82200
C305        C  0.23220060  0.06994863  0.08167973     0.98900
C306        C  0.28645504  0.08334468  0.16415838     1.04800
O307        O  0.21821998  0.03965283  0.09036629    -0.77800
C308        C  0.16670545  0.08547006  0.17121165     1.03100
Fe309      Fe  0.94049627  0.80713548  0.71658400     1.65800
Fe310      Fe  0.87220546  0.73933342  0.68834420     1.73200
Fe311      Fe  0.94540076  0.75311491  0.65107064     1.54400
O312        O  0.98176485  0.80131781  0.63830726    -0.81500
O313        O  0.88141675  0.70356032  0.70474451    -0.79900
O314        O  0.96136313  0.83178381  0.66189776    -0.84100
O315        O  0.98100060  0.80184134  0.72904644    -0.78900
O316        O  0.92113831  0.75434111  0.59833758    -0.80700
O317        O  0.86997436  0.74630213  0.75348832    -0.83400
C318        C  0.99081820  0.78132482  0.72436292     0.97300
C319        C  0.98206178  0.82839509  0.64022217     1.04800
O320        O  0.91922177  0.76682729  0.68517952    -1.12400
O321        O  0.86278799  0.77568320  0.67312585    -0.74800
O322        O  0.90338111  0.81809505  0.70676918    -0.78300
O323        O  0.97356619  0.75460642  0.70359620    -0.79000
C324        C  0.87687972  0.80506866  0.68553794     0.96200
O325        O  0.92036865  0.78444163  0.77296106    -0.77000
O326        O  0.86958139  0.73001206  0.62202203    -0.82200
C327        C  0.88326575  0.68837428  0.67338928     0.98900
C328        C  0.89051667  0.74080040  0.59165195     1.04800
O329        O  0.91018287  0.70171401  0.65292212    -0.77800
C330        C  0.89130676  0.76259059  0.78180243     1.03100
Fe331      Fe  0.85216353  0.80439815  0.21048651     1.65800
Fe332      Fe  0.85978473  0.73970549  0.18779306     1.73200
Fe333      Fe  0.79488684  0.74429906  0.14985102     1.54400
O334        O  0.76789898  0.74388935  0.20324954    -0.81500
O335        O  0.85317558  0.72840689  0.12200398    -0.79900
O336        O  0.80484332  0.79434180  0.22427802    -0.84100
O337        O  0.85212225  0.82459474  0.15363362    -0.78900
O338        O  0.78426201  0.69436686  0.15382564    -0.80700
O339        O  0.90423775  0.77876438  0.17124408    -0.83400
C340        C  0.82628173  0.81885664  0.13445423     0.97300
C341        C  0.77557436  0.77030353  0.22380673     1.04800
O342        O  0.83596342  0.76293367  0.18274855    -1.12400
O343        O  0.86819754  0.74903793  0.25302309    -0.74800
O344        O  0.85318813  0.78574268  0.26879038    -0.78300
O345        O  0.80079571  0.79052078  0.13481727    -0.79000
C346        C  0.86173773  0.76531960  0.27985933     0.96200
O347        O  0.90132939  0.82029407  0.19934706    -0.77000
O348        O  0.81691287  0.70061119  0.20535059    -0.82200
C349        C  0.83991135  0.73548514  0.09129007     0.98900
C350        C  0.79950542  0.68332916  0.17545276     1.04800
O351        O  0.82077691  0.74678861  0.09692672    -0.77800
C352        C  0.91717997  0.80878273  0.18047699     1.03100
Fe353      Fe  0.85936124  0.02459609  0.69955938     1.65800
Fe354      Fe  0.86525008  0.09527266  0.67063232     1.73200
Fe355      Fe  0.80172431  0.02313299  0.63586412     1.54400
O356        O  0.80990552  0.98435538  0.62353674    -0.81500
O357        O  0.82290528  0.09361455  0.68726740    -0.79900
O358        O  0.86092508  0.00232537  0.64474654    -0.84100
O359        O  0.81283064  0.98648568  0.71302615    -0.78900
O360        O  0.82800609  0.04599443  0.58262542    -0.80700
O361        O  0.87479418  0.09732231  0.73583830    -0.83400
C362        C  0.78283325  0.97826334  0.70954703     0.97300
C363        C  0.83525961  0.98145220  0.62576899     1.04800
O364        O  0.84207839  0.04783766  0.66907201    -1.12400
O365        O  0.90943487  0.09998659  0.65425789    -0.74800
O366        O  0.90818188  0.05883175  0.68947398    -0.78300
O367        O  0.77433389  0.99628003  0.68889460    -0.79000
C368        C  0.92328491  0.08472906  0.66762221     0.96200
O369        O  0.85811853  0.04592317  0.75532612    -0.77000
O370        O  0.85808309  0.09785104  0.60519760    -0.82200
C371        C  0.80116361  0.08711494  0.65980996     0.98900
C372        C  0.84758909  0.07617633  0.57593333     1.04800
O373        O  0.78875094  0.06017211  0.63933740    -0.77800
C374        C  0.86643362  0.07523837  0.76411085     1.03100
Fe375      Fe  0.94915419  0.11132257  0.19880253     1.65800
Fe376      Fe  0.87701002  0.10338213  0.17202284     1.73200
Fe377      Fe  0.94686130  0.16578628  0.13236383     1.54400
O378        O  0.97276762  0.19470662  0.18419106    -0.81500
O379        O  0.87258803  0.10879925  0.10612317    -0.79900
O380        O  0.98655008  0.15927118  0.21115462    -0.84100
O381        O  0.97085961  0.10957648  0.14364912    -0.78900
O382        O  0.90763629  0.17652539  0.13405192    -0.80700
O383        O  0.87213500  0.05927002  0.15712606    -0.83400
C384        C  0.99144592  0.13508462  0.12443693     0.97300
C385        C  0.99180398  0.18836748  0.20624939     1.04800
O386        O  0.92424601  0.12660507  0.16802212    -1.12400
O387        O  0.87659728  0.09491064  0.23714574    -0.74800
O388        O  0.92839413  0.11211928  0.25547128    -0.78300
O389        O  0.98768021  0.15987433  0.12129424    -0.79000
C390        C  0.89880146  0.10234284  0.26503495     0.96200
O391        O  0.91535310  0.06181697  0.18919606    -0.77000
O392        O  0.88036272  0.14645268  0.18770570    -0.82200
C393        C  0.89336284  0.11810363  0.07567655     0.98900
C394        C  0.88177143  0.16383146  0.15685820     1.04800
O395        O  0.92390924  0.13725574  0.08088325    -0.77800
C396        C  0.88848744  0.04615217  0.16891134     1.03100
C397        C  0.84053203  0.07011771  0.87915825    -0.22300
C398        C  0.86867035  0.09614316  0.89702390     0.09600
C399        C  0.89512286  0.11717185  0.87051618     0.10000
C400        C  0.89337778  0.11069983  0.82673520    -0.17300
C401        C  0.86596316  0.08346586  0.80923021    -0.27700
C402        C  0.83873893  0.06355210  0.83550722     0.18400
C403        C  0.87137969  0.09880835  0.94385941     0.12300
C404        C  0.92525411  0.14621172  0.88852607    -0.12000
H405        H  0.91394964  0.12617003  0.80640504     0.12600
C406        C  0.80753434  0.03560269  0.81767204    -0.22900
H407        H  0.82032511  0.05422218  0.89973185     0.08300
C408        C  0.85457909  0.11072710  0.96858776     0.04600
C409        C  0.86013260  0.11454330  0.01268538    -0.20100
C410        C  0.88224434  0.10687841  0.03204683    -0.12400
C411        C  0.89706964  0.09269340  0.00754361     0.13300
C412        C  0.89149217  0.08893796  0.96378366    -0.22800
C413        C  0.83189968  0.12053270  0.94828917    -0.05900
H414        H  0.84850638  0.12504254  0.03166137     0.14800
C415        C  0.91910633  0.08141429  0.02635803    -0.16100
H416        H  0.90346021  0.07875587  0.94481585     0.09200
H417        H  0.79822548  0.04460239  0.79164289     0.07000
H418        H  0.78808216  0.02437477  0.84224038     0.08200
H419        H  0.81192984  0.01612154  0.80539196     0.07300
H420        H  0.93754551  0.13800725  0.91138401     0.02100
H421        H  0.91822164  0.16255317  0.90508265     0.02600
H422        H  0.94319358  0.16055500  0.86326388     0.06100
H423        H  0.82139651  0.13010623  0.97210104     0.05100
H424        H  0.81132482  0.09906434  0.93250407    -0.00700
H425        H  0.84549727  0.13991450  0.92431726     0.00800
H426        H  0.90938503  0.05523728  0.01850209     0.04500
H427        H  0.92104181  0.08363617  0.06143819     0.06400
H428        H  0.94392586  0.09601414  0.01242906     0.07300
C429        C  0.88483920  0.07910191  0.46892305    -0.22300
C430        C  0.87279040  0.09561461  0.44483898     0.09600
C431        C  0.85473148  0.10836946  0.46468382     0.10000
C432        C  0.84831159  0.10344916  0.50847772    -0.17300
C433        C  0.85928584  0.08572587  0.53222752    -0.27700
C434        C  0.87842079  0.07407132  0.51245282     0.18400
C435        C  0.87886662  0.09840147  0.39863348     0.12300
C436        C  0.84165378  0.12635960  0.43937115    -0.12000
H437        H  0.83365005  0.11225216  0.52383244     0.12600
C438        C  0.89234872  0.05609905  0.53617753    -0.22900
H439        H  0.89902195  0.06971179  0.45348581     0.08300
C440        C  0.90752526  0.12460020  0.38134410     0.04600
C441        C  0.91293541  0.12540589  0.33749610    -0.20100
C442        C  0.89053359  0.10039482  0.31062866    -0.12400
C443        C  0.86205619  0.07377816  0.32822702     0.13300
C444        C  0.85651295  0.07324189  0.37213555    -0.22800
C445        C  0.93260416  0.15134292  0.40927179    -0.05900
H446        H  0.93491483  0.14563446  0.32409602     0.14800
C447        C  0.83834616  0.04521099  0.30142504    -0.16100
H448        H  0.83494321  0.05284649  0.38608234     0.09200
H449        H  0.91938777  0.06924606  0.53237589     0.07000
H450        H  0.88204306  0.03114446  0.52270397     0.08200
H451        H  0.88708634  0.05400550  0.57072018     0.07300
H452        H  0.82483522  0.11006741  0.41429555     0.02100
H453        H  0.86219868  0.14820766  0.42422556     0.02600
H454        H  0.82793607  0.13463335  0.45965868     0.06100
H455        H  0.95367741  0.16996676  0.39055897     0.05100
H456        H  0.94211562  0.14075002  0.43292361    -0.00700
H457        H  0.92128134  0.16381031  0.42624324     0.00800
H458        H  0.85150831  0.03442059  0.28487589     0.04500
H459        H  0.82654113  0.05331026  0.27767706     0.06400
H460        H  0.81862205  0.02574307  0.32096394     0.07300
C461        C  0.80913533  0.88782594  0.12632224    -0.22300
C462        C  0.84077437  0.91288499  0.11612142     0.09600
C463        C  0.86390641  0.90506190  0.10013248     0.10000
C464        C  0.85613569  0.87235358  0.09955255    -0.17300
C465        C  0.82622350  0.84756594  0.11602322    -0.27700
C466        C  0.80146465  0.85500782  0.12639994     0.18400
C467        C  0.85116032  0.94661263  0.12964889     0.12300
C468        C  0.89760939  0.93141663  0.08677619    -0.12000
H469        H  0.87488468  0.86655785  0.09069601     0.12600
C470        C  0.76811650  0.82911594  0.14137018    -0.22900
H471        H  0.79135560  0.89419124  0.13777627     0.08300
C472        C  0.84824254  0.96885895  0.10302690     0.04600
C473        C  0.86057400  0.00111935  0.11695127    -0.20100
C474        C  0.87585154  0.01160429  0.15688036    -0.12400
C475        C  0.87803497  0.98890417  0.18392368     0.13300
C476        C  0.86559215  0.95664417  0.16987812    -0.22800
C477        C  0.83236994  0.95857449  0.05999262    -0.05900
H478        H  0.85875245  0.01842507  0.09618498     0.14800
C479        C  0.89253511  0.99811692  0.22787026    -0.16100
H480        H  0.86745390  0.93911398  0.19014980     0.09200
H481        H  0.75179608  0.83930264  0.14765902     0.07000
H482        H  0.77042161  0.81816120  0.17131258     0.08200
H483        H  0.75635581  0.80985254  0.11669669     0.07300
H484        H  0.91052832  0.94772961  0.11407469     0.02100
H485        H  0.89556700  0.94607489  0.06070346     0.02600
H486        H  0.91274064  0.92101443  0.07521063     0.06100
H487        H  0.83207600  0.97906330  0.04315619     0.05100
H488        H  0.80668330  0.93842895  0.06364609    -0.00700
H489        H  0.84598774  0.94996868  0.04005756     0.00800
H490        H  0.89035490  0.97671063  0.24533754     0.04500
H491        H  0.87952291  0.00810900  0.24649488     0.06400
H492        H  0.91896127  0.01659983  0.22588473     0.07300
C493        C  0.84838168  0.86714768  0.68457164    -0.22300
C494        C  0.84151038  0.86714034  0.64122954     0.09600
C495        C  0.84400655  0.84520042  0.61333714     0.10000
C496        C  0.85447140  0.82433234  0.62927686    -0.17300
C497        C  0.86288696  0.82533645  0.67227868    -0.27700
C498        C  0.85908721  0.84643961  0.70053590     0.18400
C499        C  0.83587371  0.89319832  0.62544140     0.23100
C500        C  0.83611222  0.84421711  0.56680617    -0.12000
H501        H  0.85746191  0.80813195  0.60767560     0.12600
C502        C  0.86574271  0.84684959  0.74739044    -0.22900
H503        H  0.84636701  0.88422799  0.70567774     0.08300
C504        C  0.80639838  0.89304234  0.63332458     0.04600
C505        C  0.80511236  0.92159376  0.62588061    -0.20100
C506        C  0.83325974  0.95053187  0.61313139    -0.12400
C507        C  0.86152127  0.94941670  0.60081446     0.13300
C508        C  0.86245522  0.92066494  0.60719497    -0.22800
C509        C  0.77710981  0.86354093  0.65196117    -0.05900
H510        H  0.78334410  0.92231992  0.63515727     0.14800
C511        C  0.89154920  0.97845216  0.58274319    -0.16100
H512        H  0.88485876  0.92035700  0.60048835     0.09200
H513        H  0.85992349  0.86372211  0.76494757     0.07000
H514        H  0.89197630  0.85509935  0.75289986     0.08200
H515        H  0.85031376  0.82193448  0.76060775     0.07300
H516        H  0.85286350  0.86815089  0.55185703     0.02100
H517        H  0.81044325  0.83873109  0.56304778     0.02600
H518        H  0.83879619  0.82513569  0.54963114     0.06100
H519        H  0.75600164  0.86759064  0.65589364     0.05100
H520        H  0.78330130  0.85796784  0.68371426    -0.00700
H521        H  0.76950973  0.84218087  0.63067633     0.00800
H522        H  0.91255385  0.98601553  0.60470779     0.04500
H523        H  0.88793216  0.99954174  0.57739056     0.06400
H524        H  0.89762479  0.97175851  0.55158365     0.07300
C525        C  0.83033701  0.71977475  0.97271867    -0.22300
C526        C  0.86308108  0.73471694  0.96000504     0.09600
C527        C  0.88810641  0.74623266  0.99095754     0.10000
C528        C  0.87974552  0.74391493  0.03420545    -0.17300
C529        C  0.84702984  0.73114672  0.04680417    -0.27700
C530        C  0.82190574  0.71793002  0.01566789     0.18400
C531        C  0.87037678  0.74111970  0.91416591     0.12300
C532        C  0.92356637  0.76157626  0.97826343    -0.12000
H533        H  0.89892641  0.75390234  0.05801996     0.12600
C534        C  0.78610676  0.70211156  0.02716721    -0.22900
H535        H  0.81133679  0.71093985  0.94866164     0.08300
C536        C  0.86432091  0.71595481  0.88507535     0.04600
C537        C  0.87030529  0.72340949  0.84164848    -0.20100
C538        C  0.88243029  0.75546469  0.82698768    -0.12400
C539        C  0.88771396  0.78045255  0.85609019     0.13300
C540        C  0.88146197  0.77289753  0.89933527    -0.22800
C541        C  0.85222795  0.68150673  0.89997060    -0.05900
H542        H  0.86635455  0.70436036  0.81918416     0.14800
C543        C  0.89890407  0.81483171  0.84155408    -0.16100
H544        H  0.88508682  0.79183453  0.92181187     0.09200
H545        H  0.77984642  0.68247107  0.05069527     0.07000
H546        H  0.77008526  0.69094020  0.99903397     0.08200
H547        H  0.78036408  0.72042597  0.04036160     0.07300
H548        H  0.93086865  0.78387911  0.95911426     0.02100
H549        H  0.92725501  0.74390811  0.95915856     0.02600
H550        H  0.93991540  0.76870769  0.00642440     0.06100
H551        H  0.84961543  0.66503842  0.87318494     0.05100
H552        H  0.82792554  0.67166132  0.91537555    -0.00700
H553        H  0.86983400  0.68126388  0.92316038     0.00800
H554        H  0.90016777  0.83077608  0.86831620     0.04500
H555        H  0.88139943  0.81447020  0.81777741     0.06400
H556        H  0.92367168  0.82583207  0.82722857     0.07300
C557        C  0.84436141  0.73657510  0.48917387    -0.22300
C558        C  0.86816197  0.74139201  0.45877348     0.09600
C559        C  0.89735163  0.74276588  0.47179183     0.10000
C560        C  0.90279201  0.74068719  0.51504561    -0.17300
C561        C  0.88002818  0.73776706  0.54627666    -0.27700
C562        C  0.84983925  0.73462849  0.53288540     0.18400
C563        C  0.86344760  0.74684125  0.41355105     0.12300
C564        C  0.92314401  0.74705255  0.43996946    -0.12000
H565        H  0.92560303  0.74220813  0.52448963     0.12600
C566        C  0.82379847  0.73033221  0.56414825    -0.22900
H567        H  0.82183143  0.73522457  0.47870092     0.08300
C568        C  0.84776817  0.72069963  0.38457473     0.04600
C569        C  0.84804281  0.72740737  0.34100360    -0.20100
C570        C  0.86324685  0.75971286  0.32592313    -0.12400
C571        C  0.87834766  0.78589914  0.35527851     0.13300
C572        C  0.87832205  0.77907419  0.39868646    -0.22800
C573        C  0.83110552  0.68582502  0.39971465    -0.05900
H574        H  0.83604205  0.70735695  0.31864029     0.14800
C575        C  0.89575226  0.82105793  0.34096345    -0.16100
H576        H  0.89069800  0.79898146  0.42117076     0.09200
H577        H  0.81572366  0.70764641  0.58274057     0.07000
H578        H  0.80194617  0.72836145  0.54800926     0.08200
H579        H  0.83358107  0.75157136  0.58602259     0.07300
H580        H  0.93226081  0.77052370  0.42278344     0.02100
H581        H  0.91255705  0.72660796  0.41675094     0.02600
H582        H  0.94443059  0.74733803  0.45546972     0.06100
H583        H  0.81994683  0.66827079  0.37299997     0.05100
H584        H  0.81139166  0.68153375  0.42256369    -0.00700
H585        H  0.84914882  0.68087681  0.41569412     0.00800
H586        H  0.87800529  0.82727833  0.32690204     0.04500
H587        H  0.91476164  0.82506160  0.31711698     0.06400
H588        H  0.90802496  0.83814604  0.36784747     0.07300
C589        C  0.12975978  0.12920120  0.11031479    -0.22300
C590        C  0.10282021  0.12202771  0.13607394     0.09600
C591        C  0.09763574  0.10410967  0.17391077     0.10000
C592        C  0.11930349  0.09318876  0.18484574    -0.17300
C593        C  0.14611616  0.09970613  0.15887261    -0.27700
C594        C  0.15166337  0.11838986  0.12120182     0.18400
C595        C  0.07846753  0.13087150  0.12171642     0.12300
C596        C  0.06881153  0.09597052  0.20239114    -0.12000
H597        H  0.11508496  0.07920848  0.21377879     0.12600
C598        C  0.17962694  0.12597810  0.09131492    -0.22900
H599        H  0.13322996  0.14276062  0.08116593     0.08300
C600        C  0.07925599  0.15954947  0.13597837     0.04600
C601        C  0.05135627  0.16260242  0.13068093    -0.20100
C602        C  0.02265103  0.13716036  0.11252592    -0.12400
C603        C  0.02332040  0.11016076  0.09418092     0.13300
C604        C  0.05142762  0.10749445  0.09874110    -0.22800
C605        C  0.10869384  0.18584459  0.15901226    -0.05900
H606        H  0.05086855  0.18330344  0.14473277     0.14800
C607        C  0.99424126  0.08375164  0.07069701    -0.16100
H608        H  0.05142810  0.08588463  0.08713079     0.09200
H609        H  0.20337544  0.14191922  0.10733504     0.07000
H610        H  0.17885445  0.13910866  0.06248789     0.08200
H611        H  0.17839637  0.10295595  0.08076255     0.07300
H612        H  0.04560804  0.08110540  0.18467319     0.02100
H613        H  0.06999913  0.11881219  0.21361582     0.02600
H614        H  0.06842563  0.08180869  0.23073293     0.06100
H615        H  0.10515065  0.20654557  0.16836745     0.05100
H616        H  0.13050579  0.19546103  0.13803095    -0.00700
H617        H  0.11335640  0.17572399  0.18826421     0.00800
H618        H  0.98813071  0.09488119  0.04386474     0.04500
H619        H  0.97275642  0.07094493  0.09199743     0.06400
H620        H  0.99949672  0.06507353  0.05739311     0.07300
C621        C  0.07524606  0.89008422  0.14074043    -0.22300
C622        C  0.05043687  0.89516259  0.12485115     0.09600
C623        C  0.05878805  0.92475031  0.10416650     0.10000
C624        C  0.09158485  0.95001377  0.10389479    -0.17300
C625        C  0.11610291  0.94644008  0.12433110    -0.27700
C626        C  0.10806056  0.91543748  0.14095259     0.18400
C627        C  0.01626329  0.87245188  0.13808692     0.12300
C628        C  0.03279761  0.93026593  0.08466183    -0.12000
H629        H  0.09769328  0.97359281  0.09076343     0.12600
C630        C  0.13303970  0.90984795  0.16318726    -0.22900
H631        H  0.06850916  0.86717888  0.15648184     0.08300
C632        C  0.99528020  0.84385463  0.11531486     0.04600
C633        C  0.96324739  0.82345369  0.13022869    -0.20100
C634        C  0.95164548  0.83113369  0.16731274    -0.12400
C635        C  0.97303385  0.85993773  0.19014400     0.13300
C636        C  0.00505313  0.88004638  0.17524187    -0.22800
C637        C  0.00663702  0.83508066  0.07528334    -0.05900
H638        H  0.94700603  0.80161307  0.11237222     0.14800
C639        C  0.96286840  0.86940247  0.23074646    -0.16100
H640        H  0.02160119  0.90204484  0.19262769     0.09200
H641        H  0.12252370  0.88416889  0.17405207     0.07000
H642        H  0.14201315  0.92571531  0.19156461     0.08200
H643        H  0.15372757  0.91541651  0.14145248     0.07300
H644        H  0.01519183  0.92849160  0.10940228     0.02100
H645        H  0.01943174  0.91153185  0.05982621     0.02600
H646        H  0.04349664  0.95474924  0.06965080     0.06100
H647        H  0.98707375  0.81192882  0.06118113     0.05100
H648        H  0.02799137  0.83201537  0.08240930    -0.00700
H649        H  0.01390862  0.85479898  0.05141943     0.00800
H650        H  0.95411915  0.84910417  0.25401207     0.04500
H651        H  0.94323435  0.87522100  0.22423113     0.06400
H652        H  0.98354134  0.89141777  0.24555292     0.07300
C653        C  0.09307119  0.96255911  0.67874128    -0.22300
C654        C  0.09029614  0.95433161  0.63557144     0.09600
C655        C  0.11124513  0.97748422  0.60565708     0.10000
C656        C  0.13501408  0.00861243  0.61981590    -0.17300
C657        C  0.13749695  0.01713923  0.66302339    -0.27700
C658        C  0.11629962  0.99378950  0.69292761     0.18400
C659        C  0.06456363  0.92124587  0.62322232     0.12300
C660        C  0.10825997  0.96936581  0.55902295    -0.12000
H661        H  0.15107494  0.02669727  0.59693588     0.12600
C662        C  0.11845280  0.00130586  0.73980736    -0.22900
H663        H  0.07669966  0.94441462  0.70136243     0.08300
C664        C  0.06867309  0.89404426  0.62994441     0.04600
C665        C  0.04121546  0.86261288  0.62852193    -0.20100
C666        C  0.00977646  0.85818041  0.62229887    -0.12400
C667        C  0.00638760  0.88521142  0.61032184     0.13300
C668        C  0.03392914  0.91658376  0.61131175    -0.22800
C669        C  0.10159705  0.89834793  0.64151011    -0.05900
H670        H  0.04392499  0.84191409  0.63728322     0.14800
C671        C  0.97393474  0.88189218  0.59816230    -0.16100
H672        H  0.03111813  0.93764060  0.60534410     0.09200
H673        H  0.10135935  0.97944843  0.75859990     0.07000
H674        H  0.11191805  0.02046257  0.74589714     0.08200
H675        H  0.14369308  0.00977239  0.75136401     0.07300
H676        H  0.08350947  0.96302453  0.54756359     0.02100
H677        H  0.11202209  0.94824749  0.55371717     0.02600
H678        H  0.12666999  0.99027479  0.53991905     0.06100
H679        H  0.10050538  0.87448365  0.64563604     0.05100
H680        H  0.11032615  0.91208736  0.67181763    -0.00700
H681        H  0.11951709  0.91205351  0.61596928     0.00800
H682        H  0.96665622  0.89430214  0.62219049     0.04500
H683        H  0.95418830  0.85602823  0.59522698     0.06400
H684        H  0.97624845  0.89352741  0.56675246     0.07300
C685        C  0.23581569  0.06733972  0.96033965    -0.22300
C686        C  0.23818312  0.09707468  0.94952295     0.09600
C687        C  0.24199018  0.11940969  0.98186198     0.10000
C688        C  0.24126620  0.11051589  0.02467952    -0.17300
C689        C  0.23646266  0.07958222  0.03590667    -0.27700
C690        C  0.23504789  0.05821356  0.00285696     0.18400
C691        C  0.23220766  0.10190056  0.90457023     0.12300
C692        C  0.24650277  0.15243417  0.97108831    -0.12000
H693        H  0.24326605  0.12739621  0.04941282     0.12600
C694        C  0.23257369  0.02559293  0.01128053    -0.22900
H695        H  0.23315435  0.05050729  0.93512392     0.08300
C696        C  0.25578458  0.10936843  0.87244613     0.04600
C697        C  0.24715003  0.10972371  0.82973864    -0.20100
C698        C  0.21548760  0.10296546  0.81845986    -0.12400
C699        C  0.19195548  0.09564842  0.85107657     0.13300
C700        C  0.20069429  0.09513763  0.89353373    -0.22800
C701        C  0.29004700  0.11723561  0.88335603    -0.05900
H702        H  0.26536877  0.11576784  0.80509629     0.14800
C703        C  0.15719139  0.08714828  0.84167433    -0.16100
H704        H  0.18260142  0.08880420  0.91844689     0.09200
H705        H  0.25266828  0.02879692  0.03266431     0.07000
H706        H  0.23465120  0.01401006  0.98158949     0.08200
H707        H  0.20845025  0.00836922  0.02551388     0.07300
H708        H  0.22477838  0.14953439  0.95361087     0.02100
H709        H  0.26861322  0.16603606  0.95090172     0.02600
H710        H  0.24969808  0.16720083  0.00005856     0.06100
H711        H  0.30566472  0.12318742  0.85458156     0.05100
H712        H  0.28944068  0.09598972  0.89922557    -0.00700
H713        H  0.30143954  0.13864076  0.90506355     0.00800
H714        H  0.14174305  0.07944877  0.87073473     0.04500
H715        H  0.14596911  0.06663798  0.81856805     0.06400
H716        H  0.15673790  0.10874231  0.82876144     0.07300
C717        C  0.23870153  0.09168438  0.47777916    -0.22300
C718        C  0.23545102  0.11245886  0.44889351     0.09600
C719        C  0.23475911  0.14010556  0.46411849     0.10000
C720        C  0.23575571  0.14555430  0.50798427    -0.17300
C721        C  0.23701091  0.12383216  0.53764645    -0.27700
C722        C  0.23965428  0.09702344  0.52200319     0.18400
C723        C  0.22987565  0.10346851  0.40319165     0.12300
C724        C  0.23242843  0.16364559  0.43401836    -0.12000
H725        H  0.23472295  0.16673241  0.51907108     0.12600
C726        C  0.24246104  0.07333982  0.55122636    -0.22900
H727        H  0.23946005  0.07060142  0.46562822     0.08300
C728        C  0.25584638  0.11098402  0.37476776     0.04600
C729        C  0.24890833  0.10263424  0.33154796    -0.20100
C730        C  0.21651297  0.08647136  0.31637585    -0.12400
C731        C  0.19056050  0.07918541  0.34504135     0.13300
C732        C  0.19763974  0.08790501  0.38798633    -0.22800
C733        C  0.29075392  0.12783425  0.39012071    -0.05900
H734        H  0.26877478  0.10809606  0.30968688     0.14800
C735        C  0.15541206  0.06305942  0.33044444    -0.16100
H736        H  0.17789032  0.08258094  0.41000438     0.09200
H737        H  0.24388955  0.05382673  0.53329957     0.07000
H738        H  0.22067797  0.06135094  0.57228167     0.08200
H739        H  0.26509606  0.08646679  0.57059587     0.07300
H740        H  0.20934919  0.15082873  0.41549034     0.02100
H741        H  0.25357271  0.17389952  0.41183680     0.02600
H742        H  0.23260251  0.18429712  0.45115047     0.06100
H743        H  0.30814907  0.13202060  0.36382815     0.05100
H744        H  0.29367552  0.11258100  0.41457653    -0.00700
H745        H  0.29725289  0.15188652  0.40421081     0.00800
H746        H  0.13874929  0.06142059  0.35649649     0.04500
H747        H  0.14710351  0.03779732  0.31940623     0.06400
H748        H  0.15304611  0.07743265  0.30421248     0.07300
C749        C  0.01256907  0.10664869  0.67144134    -0.22300
C750        C  0.02354695  0.12135075  0.63166438     0.09600
C751        C  0.00187342  0.12429370  0.60381966     0.10000
C752        C  0.96935004  0.11243974  0.61664966    -0.17300
C753        C  0.95805534  0.09731408  0.65646793    -0.27700
C754        C  0.98011081  0.09453292  0.68431266     0.18400
C755        C  0.05775410  0.13215381  0.62015156     0.12300
C756        C  0.01313876  0.13994756  0.56085268    -0.12000
H757        H  0.95251799  0.11450246  0.59517611     0.12600
C758        C  0.97009535  0.07965295  0.72797438    -0.22900
H759        H  0.02961148  0.10448950  0.69243560     0.08300
C760        C  0.08384750  0.16025879  0.63889293     0.04600
C761        C  0.11548364  0.16478388  0.63682249    -0.20100
C762        C  0.12105078  0.14106487  0.61808021    -0.12400
C763        C  0.09558317  0.11475114  0.59558938     0.13300
C764        C  0.06408474  0.11068004  0.59672198    -0.22800
C765        C  0.07796924  0.18421479  0.66351958    -0.05900
H766        H  0.13511409  0.18489082  0.65418935     0.14800
C767        C  0.10067768  0.08989056  0.57197166    -0.16100
H768        H  0.04393808  0.08929036  0.58203171     0.09200
H769        H  0.95181098  0.05324038  0.72538512     0.07000
H770        H  0.95962467  0.09236956  0.74629863     0.08200
H771        H  0.99123822  0.08178292  0.74620404     0.07300
H772        H  0.02174750  0.12596643  0.54168405     0.02100
H773        H  0.03355567  0.16545489  0.56473126     0.02600
H774        H  0.99309962  0.14054019  0.54309837     0.06100
H775        H  0.10115723  0.20476856  0.67614842     0.05100
H776        H  0.06155023  0.17183693  0.69090215    -0.00700
H777        H  0.06647313  0.19447123  0.64248724     0.00800
H778        H  0.08553947  0.06542432  0.58658754     0.04500
H779        H  0.12666414  0.09600554  0.57205991     0.06400
H780        H  0.09314563  0.08883145  0.53831938     0.07300
C781        C  0.07951251  0.83183866  0.76638644    -0.22300
C782        C  0.08933817  0.80851534  0.76840820     0.09600
C783        C  0.06668367  0.77589275  0.75678553     0.10000
C784        C  0.03478690  0.76749997  0.74313148    -0.17300
C785        C  0.02452682  0.79084918  0.74129449    -0.27700
C786        C  0.04784259  0.82381372  0.75315983     0.18400
C787        C  0.12261437  0.81873313  0.78614094     0.12300
C788        C  0.07616057  0.74989932  0.75906820    -0.12000
H789        H  0.01777955  0.74249224  0.73398332     0.12600
C790        C  0.04047289  0.85145729  0.75182123    -0.22900
H791        H  0.09693464  0.85672633  0.77570373     0.08300
C792        C  0.15085249  0.83026424  0.76038956     0.04600
C793        C  0.18149489  0.83949053  0.77929268    -0.20100
C794        C  0.18476002  0.83750766  0.82358416    -0.12400
C795        C  0.15654221  0.82792574  0.84938020     0.13300
C796        C  0.12613775  0.81881678  0.83030997    -0.22800
C797        C  0.14855129  0.83246753  0.71292944    -0.05900
H798        H  0.20259739  0.84658427  0.75906150     0.14800
C799        C  0.15792130  0.82701182  0.89725232    -0.16100
H800        H  0.10465142  0.81105694  0.85005434     0.09200
H801        H  0.06198511  0.87525737  0.76096775     0.07000
H802        H  0.02054713  0.84668357  0.77453249     0.08200
H803        H  0.03354813  0.85438960  0.71914737     0.07300
H804        H  0.08320174  0.74791984  0.79211198     0.02100
H805        H  0.09719007  0.75629479  0.73762537     0.02600
H806        H  0.05568891  0.72561509  0.74932759     0.06100
H807        H  0.17278027  0.84191217  0.69736598     0.05100
H808        H  0.13917854  0.84922321  0.70519938    -0.00700
H809        H  0.13163654  0.80792462  0.69958707     0.00800
H810        H  0.13476629  0.82291380  0.91202724     0.04500
H811        H  0.17806373  0.85066235  0.90933071     0.06400
H812        H  0.16157950  0.80669902  0.90783186     0.07300
C813        C  0.16008167  0.90448139  0.29638440    -0.22300
C814        C  0.17170775  0.88518900  0.27819513     0.09600
C815        C  0.19537005  0.89867702  0.24547168     0.10000
C816        C  0.20552228  0.93047704  0.23027694    -0.17300
C817        C  0.19277262  0.94944018  0.24720901    -0.27700
C818        C  0.17038040  0.93631716  0.28186336     0.18400
C819        C  0.15968788  0.85154132  0.29550142     0.12300
C820        C  0.20996749  0.87950898  0.22672531    -0.12000
H821        H  0.22249489  0.93997917  0.20385285     0.12600
C822        C  0.15707322  0.95549515  0.30428714    -0.22900
H823        H  0.14242023  0.89430862  0.32203094     0.08300
C824        C  0.16949511  0.84696943  0.33596751     0.04600
C825        C  0.15800824  0.81516243  0.35123065    -0.20100
C826        C  0.13779499  0.78705737  0.32665205    -0.12400
C827        C  0.12686206  0.79173088  0.28659899     0.13300
C828        C  0.13775062  0.82386203  0.27180286    -0.22800
C829        C  0.19342778  0.87569414  0.36245816    -0.05900
H830        H  0.16653127  0.81246368  0.38208521     0.14800
C831        C  0.10426079  0.76331534  0.25886091    -0.16100
H832        H  0.12969393  0.82747135  0.24108337     0.09200
H833        H  0.14363543  0.94306577  0.33374360     0.07000
H834        H  0.13946804  0.95807203  0.28363008     0.08200
H835        H  0.17750831  0.97995784  0.31348391     0.07300
H836        H  0.19038881  0.85663104  0.21231409     0.02100
H837        H  0.22232180  0.87331291  0.25204937     0.02600
H838        H  0.22827602  0.89352773  0.20167974     0.06100
H839        H  0.19971504  0.86779556  0.39249998     0.05100
H840        H  0.18278263  0.89121718  0.37095103    -0.00700
H841        H  0.21643962  0.89046121  0.34429839     0.00800
H842        H  0.09715019  0.77150603  0.22974708     0.04500
H843        H  0.08155151  0.74683071  0.27665892     0.06400
H844        H  0.11650139  0.74963762  0.24852679     0.07300
C845        C  0.18267433  0.75825047  0.65178277    -0.22300
C846        C  0.20795222  0.77730123  0.62324301     0.09600
C847        C  0.23700145  0.80428685  0.63813271     0.10000
C848        C  0.24102671  0.81047914  0.68174786    -0.17300
C849        C  0.21684099  0.79012361  0.71124982    -0.27700
C850        C  0.18660598  0.76439880  0.69576517     0.18400
C851        C  0.20473285  0.76737185  0.57823420     0.12300
C852        C  0.26416052  0.82600139  0.60805271    -0.12000
H853        H  0.26384067  0.83097808  0.69283280     0.12600
C854        C  0.15880663  0.74273422  0.72495462    -0.22900
H855        H  0.16023001  0.73783708  0.63963299     0.08300
C856        C  0.21513363  0.74566948  0.56427109     0.04600
C857        C  0.21298850  0.73780610  0.52102364    -0.20100
C858        C  0.20107668  0.75148461  0.49137059    -0.12400
C859        C  0.19065030  0.77331557  0.50555358     0.13300
C860        C  0.19264433  0.78097014  0.54896150    -0.22800
C861        C  0.22866587  0.73100524  0.59505219    -0.05900
H862        H  0.22089490  0.72105408  0.51021739     0.14800
C863        C  0.17629964  0.78768434  0.47557309    -0.16100
H864        H  0.18487041  0.79771848  0.56020270     0.09200
H865        H  0.16668970  0.72980055  0.74717868     0.07000
H866        H  0.13723354  0.72396492  0.70709955     0.08200
H867        H  0.15087233  0.75771132  0.74313751     0.07300
H868        H  0.25496677  0.83719902  0.58486492     0.02100
H869        H  0.27298168  0.81144412  0.59062987     0.02600
H870        H  0.28534869  0.84603025  0.62506961     0.06100
H871        H  0.23569315  0.71452955  0.57883136     0.05100
H872        H  0.20993788  0.71657484  0.61945695    -0.00700
H873        H  0.25077479  0.75070746  0.61095727     0.00800
H874        H  0.16793225  0.80278647  0.49263373     0.04500
H875        H  0.15482674  0.76775607  0.45890354     0.06400
H876        H  0.19497065  0.80369556  0.45202676     0.07300
C877        C  0.17734697  0.75099490  0.05260811    -0.22300
C878        C  0.20338935  0.77064823  0.07987937     0.09600
C879        C  0.23468752  0.79154554  0.06296778     0.10000
C880        C  0.23952417  0.79159453  0.01905453    -0.17300
C881        C  0.21386849  0.77093659  0.99147472    -0.27700
C882        C  0.18210896  0.75085741  0.00850527     0.18400
C883        C  0.19839865  0.76550832  0.12620141     0.12300
C884        C  0.26313667  0.81315522  0.09142150    -0.12000
H885        H  0.26377678  0.80754308  0.00628197     0.12600
C886        C  0.15351939  0.72811615  0.98102249    -0.22900
H887        H  0.15344887  0.73479135  0.06617574     0.08300
C888        C  0.18704351  0.78243004  0.15156980     0.04600
C889        C  0.18166887  0.77523920  0.19519388    -0.20100
C890        C  0.18659329  0.75087434  0.21326560    -0.12400
C891        C  0.19879662  0.73461699  0.18783828     0.13300
C892        C  0.20468841  0.74230480  0.14465553    -0.22800
C893        C  0.18005424  0.80744433  0.13236213    -0.05900
H894        H  0.17250872  0.78776945  0.21484404     0.14800
C895        C  0.20613905  0.70946868  0.20616196    -0.16100
H896        H  0.21374389  0.72974056  0.12485897     0.09200
H897        H  0.14793120  0.74243238  0.95802784     0.07000
H898        H  0.13106356  0.71314744  0.00012998     0.08200
H899        H  0.15932993  0.71116096  0.96368012     0.07300
H900        H  0.26768594  0.79795942  0.11420719     0.02100
H901        H  0.25757653  0.83002862  0.10938000     0.02600
H902        H  0.28596994  0.82809805  0.07298736     0.06100
H903        H  0.17036967  0.81769200  0.15630267     0.05100
H904        H  0.16145141  0.79595611  0.10684809    -0.00700
H905        H  0.20285184  0.82779774  0.11867791     0.00800
H906        H  0.18326205  0.68773958  0.21718309     0.04500
H907        H  0.22342513  0.72022639  0.23322813     0.06400
H908        H  0.21751779  0.70090143  0.18225834     0.07300
C909        C  0.14106151  0.55740252  0.29486332    -0.22300
C910        C  0.17213569  0.56273467  0.28361824     0.09600
C911        C  0.19651674  0.59403580  0.27019584     0.10000
C912        C  0.19055790  0.62016479  0.27319164    -0.17300
C913        C  0.16097860  0.61574746  0.28989378    -0.27700
C914        C  0.13513512  0.58366273  0.29827753     0.18400
C915        C  0.18085521  0.53744105  0.29367008     0.12300
C916        C  0.22967588  0.60033143  0.25583607    -0.12000
H917        H  0.21015550  0.64468777  0.26603020     0.12600
C918        C  0.10240137  0.57727034  0.31450905    -0.22900
H919        H  0.12234891  0.53311932  0.30451467     0.08300
C920        C  0.18973549  0.53428162  0.33553922     0.04600
C921        C  0.20235570  0.51351598  0.34337939    -0.20100
C922        C  0.20578077  0.49543170  0.31049696    -0.12400
C923        C  0.19595758  0.49783885  0.26874239     0.13300
C924        C  0.18373655  0.51901884  0.26081595    -0.22800
C925        C  0.18664964  0.55346975  0.37179757    -0.05900
H926        H  0.20962175  0.51137149  0.37535441     0.14800
C927        C  0.19978587  0.47938063  0.23214580    -0.16100
H928        H  0.17718628  0.52189311  0.22875261     0.09200
H929        H  0.10561076  0.58989644  0.34533117     0.07000
H930        H  0.08520658  0.55079398  0.31961682     0.08200
H931        H  0.09111361  0.58624277  0.29113565     0.07300
H932        H  0.22685659  0.58512141  0.22750073     0.02100
H933        H  0.24162065  0.59412672  0.28169740     0.02600
H934        H  0.24607558  0.62634809  0.24713332     0.06100
H935        H  0.19514467  0.54846250  0.40228555     0.05100
H936        H  0.16063680  0.54677082  0.37578208    -0.00700
H937        H  0.20163521  0.58005724  0.36522387     0.00800
H938        H  0.19258333  0.48554171  0.20145479     0.04500
H939        H  0.18402265  0.45267289  0.23707873     0.06400
H940        H  0.22575734  0.48560673  0.22955068     0.07300
C941        C  0.06585786  0.23774868  0.27779351    -0.22300
C942        C  0.08966366  0.25793828  0.24802701     0.09600
C943        C  0.08002219  0.25722528  0.20533722     0.10000
C944        C  0.04719209  0.23605298  0.19329128    -0.17300
C945        C  0.02356705  0.21521915  0.22280208    -0.27700
C946        C  0.03308011  0.21633086  0.26569735     0.18400
C947        C  0.12350112  0.28201409  0.26325660     0.12300
C948        C  0.10441301  0.27879138  0.17245108    -0.12000
H949        H  0.04023623  0.23473668  0.16021734     0.12600
C950        C  0.00850040  0.19534627  0.29891047    -0.22900
H951        H  0.07299345  0.23887331  0.31075345     0.08300
C952        C  0.12948004  0.31111382  0.28333107     0.04600
C953        C  0.16086607  0.33291630  0.29883298    -0.20100
C954        C  0.18754399  0.32743301  0.29412900    -0.12400
C955        C  0.18168854  0.29827084  0.27355529     0.13300
C956        C  0.14974055  0.27593874  0.25841600    -0.22800
C957        C  0.10278399  0.31965418  0.28764048    -0.05900
H958        H  0.16464342  0.35510780  0.31407017     0.14800
C959        C  0.20795386  0.28935210  0.26836114    -0.16100
H960        H  0.14521578  0.25350603  0.24306845     0.09200
H961        H  0.98803067  0.20058261  0.29964303     0.07000
H962        H  0.01960606  0.20014493  0.33110425     0.08200
H963        H  0.99867281  0.16909324  0.29163792     0.07300
H964        H  0.12451401  0.27309233  0.17017539     0.02100
H965        H  0.11462180  0.30480146  0.18153405     0.02600
H966        H  0.09304202  0.27517324  0.14055175     0.06100
H967        H  0.11175432  0.34378401  0.30316101     0.05100
H968        H  0.08241819  0.30097500  0.30715902    -0.00700
H969        H  0.09336204  0.32065971  0.25568848     0.00800
H970        H  0.20003380  0.26547330  0.28394969     0.04500
H971        H  0.23155805  0.30752335  0.28279708     0.06400
H972        H  0.21200732  0.28720935  0.23403508     0.07300
C973        C  0.15125115  0.28683155  0.81786233    -0.22300
C974        C  0.15588505  0.28325306  0.77455861     0.09600
C975        C  0.14515313  0.29819092  0.74448531     0.10000
C976        C  0.13371801  0.31920275  0.75857871    -0.17300
C977        C  0.13166951  0.32487437  0.80215778    -0.27700
C978        C  0.13865901  0.30662580  0.83189258     0.18400
C979        C  0.16889122  0.26109094  0.76223839     0.12300
C980        C  0.14558362  0.29194810  0.69759551    -0.12000
H981        H  0.12837880  0.33281343  0.73537931     0.12600
C982        C  0.13345157  0.30779458  0.87898441    -0.22900
H983        H  0.15761849  0.27404153  0.84114822     0.08300
C984        C  0.19949687  0.27178517  0.74188090     0.04600
C985        C  0.20888550  0.24875143  0.72988229    -0.20100
C986        C  0.18936030  0.21528437  0.73948873    -0.12400
C987        C  0.16009972  0.20538127  0.76364966     0.13300
C988        C  0.15032993  0.22821103  0.77377767    -0.22800
C989        C  0.22334027  0.30733039  0.73357313    -0.05900
H990        H  0.23156464  0.25710900  0.71254184     0.14800
C991        C  0.13840745  0.17086842  0.77951284    -0.16100
H992        H  0.12753569  0.22021034  0.79073776     0.09200
H993        H  0.15738840  0.31899179  0.89568935     0.07000
H994        H  0.11767173  0.28255478  0.89105728     0.08200
H995        H  0.12095366  0.32171522  0.88687767     0.07300
H996        H  0.13036782  0.26537122  0.69113577     0.02100
H997        H  0.17091126  0.30058678  0.68656748     0.02600
H998        H  0.13563214  0.30482804  0.67866510     0.06100
H999        H  0.24696407  0.31436100  0.74949983     0.05100
H1000       H  0.21460174  0.32356025  0.74596142    -0.00700
H1001       H  0.22771599  0.31148434  0.69888418     0.00800
H1002       H  0.11921252  0.16906794  0.80165525     0.04500
H1003       H  0.15328462  0.16254503  0.79716074     0.06400
H1004       H  0.12537469  0.15416927  0.75259525     0.07300
C1005       C  0.18133145  0.41749268  0.03613030    -0.22300
C1006       C  0.20704907  0.41298069  0.04944403     0.09600
C1007       C  0.22881558  0.41244331  0.01909538     0.10000
C1008       C  0.22543847  0.41830611  0.97610955    -0.17300
C1009       C  0.20086914  0.42489587  0.96288925    -0.27700
C1010       C  0.17777243  0.42327625  0.99328197     0.18400
C1011       C  0.21245012  0.41197872  0.09567346     0.12300
C1012       C  0.25590690  0.40625873  0.03231732    -0.12000
H1013       H  0.24269196  0.41874763  0.95296902     0.12600
C1014       C  0.14897032  0.42709733  0.98102883    -0.22900
H1015       H  0.16450795  0.41742454  0.05969526     0.08300
C1016       C  0.23194249  0.44112997  0.11853612     0.04600
C1017       C  0.23718493  0.43951511  0.16205765    -0.20100
C1018       C  0.22306638  0.40948583  0.18342524    -0.12400
C1019       C  0.20326602  0.38029761  0.16070838     0.13300
C1020       C  0.19801027  0.38187383  0.11695344    -0.22800
C1021       C  0.24749384  0.47393162  0.09684558    -0.05900
H1022       H  0.25275450  0.46182124  0.17950351     0.14800
C1023       C  0.18895003  0.34757500  0.18214421    -0.16100
H1024       H  0.18305921  0.35961001  0.09913832     0.09200
H1025       H  0.15767289  0.45242081  0.97034331     0.07000
H1026       H  0.13213988  0.42232761  0.00823309     0.08200
H1027       H  0.13474850  0.40958819  0.95530365     0.07300
H1028       H  0.24527202  0.38194020  0.04775325     0.02100
H1029       H  0.27246213  0.42535328  0.05510702     0.02600
H1030       H  0.27073838  0.40657877  0.00469429     0.06100
H1031       H  0.26206679  0.49423146  0.11936720     0.05100
H1032       H  0.22819164  0.47796788  0.08291458    -0.00700
H1033       H  0.26409037  0.47483324  0.07118827     0.00800
H1034       H  0.17536888  0.32723435  0.15935076     0.04500
H1035       H  0.17178529  0.34584235  0.20744474     0.06400
H1036       H  0.20882618  0.34457837  0.19635099     0.07300
C1037       C  0.20777677  0.39468681  0.62501386    -0.22300
C1038       C  0.19400725  0.40634063  0.59531415     0.09600
C1039       C  0.17186866  0.41619593  0.60890232     0.10000
C1040       C  0.16538032  0.41599479  0.65230921    -0.17300
C1041       C  0.18034360  0.40600657  0.68305234    -0.27700
C1042       C  0.20108194  0.39407663  0.66873898     0.18400
C1043       C  0.20504530  0.41093405  0.55054920     0.12300
C1044       C  0.15554867  0.42757381  0.57751504    -0.12000
H1045       H  0.14880560  0.42438863  0.66209583     0.12600
C1046       C  0.21640649  0.38070868  0.69863890    -0.22900
H1047       H  0.22450061  0.38681705  0.61393174     0.08300
C1048       C  0.23116884  0.44115415  0.53682736     0.04600
C1049       C  0.23871673  0.44618994  0.49346112    -0.20100
C1050       C  0.22085750  0.42166499  0.46319712    -0.12400
C1051       C  0.19545834  0.39072169  0.47744593     0.13300
C1052       C  0.18778139  0.38590984  0.52101097    -0.22800
C1053       C  0.25083802  0.46824923  0.56804131    -0.05900
H1054       H  0.25846759  0.46973770  0.48312737     0.14800
C1055       C  0.17686207  0.36237591  0.44748326    -0.16100
H1056       H  0.16788925  0.36269727  0.53210383     0.09200
H1057       H  0.23309445  0.39985995  0.72108408     0.07000
H1058       H  0.23091598  0.37167884  0.68145814     0.08200
H1059       H  0.19697885  0.35992776  0.71661354     0.07300
H1060       H  0.14099579  0.40769777  0.55447152     0.02100
H1061       H  0.17431198  0.44930722  0.56003213     0.02600
H1062       H  0.13877666  0.43438105  0.59342391     0.06100
H1063       H  0.27057361  0.49027671  0.55207228     0.05100
H1064       H  0.26238318  0.45979967  0.59176404    -0.00700
H1065       H  0.23466153  0.47542940  0.58475421     0.00800
H1066       H  0.15951397  0.33972384  0.46472350     0.04500
H1067       H  0.19424876  0.35732791  0.42981626     0.06400
H1068       H  0.16228510  0.36791506  0.42484541     0.07300
C1069       C  0.14000986  0.55975856  0.78060720    -0.22300
C1070       C  0.17115379  0.58761484  0.77821774     0.09600
C1071       C  0.19823726  0.58451970  0.76612082     0.10000
C1072       C  0.19417228  0.55328447  0.76104818    -0.17300
C1073       C  0.16393382  0.52504040  0.76941843    -0.27700
C1074       C  0.13593214  0.52830862  0.77618277     0.18400
C1075       C  0.17631374  0.61881099  0.79593080     0.12300
C1076       C  0.23195886  0.61409588  0.76186757    -0.12000
H1077       H  0.21551850  0.55098177  0.75460129     0.12600
C1078       C  0.10219508  0.49915522  0.78195586    -0.22900
H1079       H  0.11929362  0.56256811  0.78922605     0.08300
C1080       C  0.17733048  0.64358149  0.77011839     0.04600
C1081       C  0.18751937  0.67442170  0.78796879    -0.20100
C1082       C  0.19684616  0.68097484  0.83093583    -0.12400
C1083       C  0.19395379  0.65548393  0.85727402     0.13300
C1084       C  0.18363686  0.62464370  0.83936494    -0.22800
C1085       C  0.16814289  0.63757585  0.72382542    -0.05900
H1086       H  0.18939512  0.69388604  0.76786067     0.14800
C1087       C  0.20121410  0.66046234  0.90418332    -0.16100
H1088       H  0.18236598  0.60519838  0.85899746     0.09200
H1089       H  0.08335879  0.50649366  0.78601412     0.07000
H1090       H  0.10152880  0.48535834  0.81068571     0.08200
H1091       H  0.09547928  0.48308510  0.75357550     0.07300
H1092       H  0.23967183  0.62744100  0.79256584     0.02100
H1093       H  0.23180431  0.63066994  0.73707636     0.02600
H1094       H  0.25048746  0.60725058  0.75272086     0.06100
H1095       H  0.17023708  0.65961940  0.70823881     0.05100
H1096       H  0.14241964  0.61739370  0.72071943    -0.00700
H1097       H  0.18444535  0.63073002  0.70681187     0.00800
H1098       H  0.19572124  0.63733263  0.92019524     0.04500
H1099       H  0.18597812  0.66953894  0.91927951     0.06400
H1100       H  0.22750523  0.67832391  0.90947219     0.07300
C1101       C  0.37405907  0.76833846  0.78346892    -0.22300
C1102       C  0.40317641  0.79359272  0.80054844     0.09600
C1103       C  0.40565297  0.82379392  0.81064454     0.10000
C1104       C  0.37763143  0.82686021  0.80774415    -0.17300
C1105       C  0.34734401  0.80016139  0.79544701    -0.27700
C1106       C  0.34611545  0.77135467  0.78030789     0.18400
C1107       C  0.42900874  0.78613566  0.81222021     0.12300
C1108       C  0.43728817  0.85200430  0.82663067    -0.12000
H1109       H  0.37875436  0.84909653  0.81899096     0.12600
C1110       C  0.31552237  0.74304056  0.76195200    -0.22900
H1111       H  0.37265823  0.74547936  0.77459431     0.08300
C1112       C  0.42763567  0.77093990  0.85131447     0.04600
C1113       C  0.45010483  0.76043873  0.85940989    -0.20100
C1114       C  0.47416452  0.76511450  0.82950273    -0.12400
C1115       C  0.47619599  0.78155121  0.79083808     0.13300
C1116       C  0.45340013  0.79171382  0.78270523    -0.22800
C1117       C  0.40211715  0.76541855  0.88421845    -0.05900
H1118       H  0.44874219  0.74831391  0.88917939     0.14800
C1119       C  0.50121501  0.78723643  0.75710178    -0.16100
H1120       H  0.45405481  0.80336694  0.75279000     0.09200
H1121       H  0.30688743  0.72136291  0.78287988     0.07000
H1122       H  0.32103614  0.73695490  0.73002709     0.08200
H1123       H  0.29547731  0.74861042  0.75784370     0.07300
H1124       H  0.45664157  0.85899068  0.80217451     0.02100
H1125       H  0.44497375  0.84492193  0.85617433     0.02600
H1126       H  0.43478765  0.87367648  0.83364461     0.06100
H1127       H  0.40465349  0.75344773  0.91315670     0.05100
H1128       H  0.37724222  0.74951244  0.87097945    -0.00700
H1129       H  0.40464284  0.78919239  0.89376326     0.00800
H1130       H  0.49779869  0.79861714  0.72814988     0.04500
H1131       H  0.49907216  0.76360177  0.74760428     0.06400
H1132       H  0.52622317  0.80404765  0.76928357     0.07300
C1133       C  0.68569797  0.84257719  0.81468034    -0.22300
C1134       C  0.68658650  0.84751627  0.77068067     0.09600
C1135       C  0.66921811  0.82001412  0.74390828     0.10000
C1136       C  0.64961340  0.78873800  0.76203068    -0.17300
C1137       C  0.64725004  0.78399313  0.80640584    -0.27700
C1138       C  0.66694352  0.81135634  0.83274953     0.18400
C1139       C  0.70985685  0.88091110  0.75389614     0.12300
C1140       C  0.67149695  0.82353760  0.69627199    -0.12000
H1141       H  0.63485385  0.76820038  0.74139524     0.12600
C1142       C  0.66925512  0.80858445  0.88015707    -0.22900
H1143       H  0.70035751  0.86331582  0.83520244     0.08300
C1144       C  0.70037555  0.90379430  0.74166120     0.04600
C1145       C  0.72440742  0.93538195  0.72780976    -0.20100
C1146       C  0.75802315  0.94525402  0.72736040    -0.12400
C1147       C  0.76720845  0.92207488  0.74147587     0.13300
C1148       C  0.74302600  0.89054606  0.75375874    -0.22800
C1149       C  0.66509345  0.89524398  0.74435800    -0.05900
H1150       H  0.71684865  0.95249031  0.71762415     0.14800
C1151       C  0.80228913  0.92944676  0.74427586    -0.16100
H1152       H  0.75008536  0.87304755  0.76406188     0.09200
H1153       H  0.65893686  0.82225705  0.89649683     0.07000
H1154       H  0.69537087  0.81934657  0.88939207     0.08200
H1155       H  0.65650844  0.78294018  0.89141514     0.07300
H1156       H  0.69736103  0.83385547  0.68614233     0.02100
H1157       H  0.66252732  0.84000703  0.68565695     0.02600
H1158       H  0.65660674  0.79963033  0.68006346     0.06100
H1159       H  0.66185967  0.91598318  0.73437061     0.05100
H1160       H  0.65636649  0.88887525  0.77762907    -0.00700
H1161       H  0.64965022  0.87410382  0.72355514     0.00800
H1162       H  0.80411269  0.90830031  0.75619832     0.04500
H1163       H  0.81625549  0.94995126  0.76674147     0.06400
H1164       H  0.81393823  0.93543012  0.71248365     0.07300
C1165       C  0.33094646  0.52408208  0.75068444    -0.22300
C1166       C  0.35243717  0.54623999  0.78067935     0.09600
C1167       C  0.34133301  0.54693972  0.82212267     0.10000
C1168       C  0.30895261  0.52459599  0.83311295    -0.17300
C1169       C  0.28739720  0.50176422  0.80355279    -0.27700
C1170       C  0.29834831  0.50182797  0.76151845     0.18400
C1171       C  0.38650435  0.56938717  0.76860323     0.12300
C1172       C  0.36359737  0.57152886  0.85462797    -0.12000
H1173       H  0.30043131  0.52487984  0.86503731     0.12600
C1174       C  0.27568348  0.47940406  0.72760027    -0.22900
H1175       H  0.33972726  0.52432967  0.71875946     0.08300
C1176       C  0.41204734  0.56356326  0.77992050     0.04600
C1177       C  0.44424621  0.58988956  0.78096165    -0.20100
C1178       C  0.45083550  0.62162799  0.77158404    -0.12400
C1179       C  0.42586573  0.62628169  0.75404002     0.13300
C1180       C  0.39376049  0.59999514  0.75305673    -0.22800
C1181       C  0.40492286  0.53016169  0.79390530    -0.05900
H1182       H  0.46352170  0.58626873  0.79380469     0.14800
C1183       C  0.43212619  0.65905205  0.73841768    -0.16100
H1184       H  0.37401303  0.60401960  0.74328333     0.09200
H1185       H  0.26779222  0.45378335  0.73590139     0.07000
H1186       H  0.28786167  0.48441708  0.69607079     0.08200
H1187       H  0.25396687  0.48256521  0.72463420     0.07300
H1188       H  0.37239852  0.59667788  0.84272513     0.02100
H1189       H  0.38496378  0.56829619  0.86079323     0.02600
H1190       H  0.35083062  0.56880541  0.88531708     0.06100
H1191       H  0.42771833  0.52987546  0.80185379     0.05100
H1192       H  0.39224964  0.51229595  0.76791571    -0.00700
H1193       H  0.38900958  0.52235967  0.82250080     0.00800
H1194       H  0.42342764  0.65665279  0.70512186     0.04500
H1195       H  0.45853227  0.67778950  0.73866213     0.06400
H1196       H  0.41862440  0.66769553  0.75856150     0.07300
C1197       C  0.41482948  0.55929497  0.27573001    -0.22300
C1198       C  0.41025397  0.58598313  0.26886898     0.09600
C1199       C  0.37998792  0.58078615  0.25346918     0.10000
C1200       C  0.35332527  0.54889198  0.25197061    -0.17300
C1201       C  0.35651654  0.52225292  0.26528371    -0.27700
C1202       C  0.38824794  0.52720564  0.27360142     0.18400
C1203       C  0.43453114  0.61823894  0.28599965     0.12300
C1204       C  0.37538490  0.60910423  0.24155595    -0.12000
H1205       H  0.32928560  0.54505157  0.24399034     0.12600
C1206       C  0.39399672  0.49933513  0.28366884    -0.22900
H1207       H  0.43855961  0.56367765  0.28634961     0.08300
C1208       C  0.43007446  0.62783434  0.32684186     0.04600
C1209       C  0.45115363  0.65979598  0.34074434    -0.20100
C1210       C  0.47692144  0.68223731  0.31509593    -0.12400
C1211       C  0.48223470  0.67209747  0.27476565     0.13300
C1212       C  0.46078656  0.64009119  0.26071849    -0.22800
C1213       C  0.40273349  0.60441000  0.35555329    -0.05900
H1214       H  0.44733123  0.66741535  0.37171824     0.14800
C1215       C  0.50932159  0.69515275  0.24545002    -0.16100
H1216       H  0.46390234  0.63232002  0.22948530     0.09200
H1217       H  0.38085732  0.48694709  0.31313696     0.07000
H1218       H  0.42038600  0.50787732  0.28867380     0.08200
H1219       H  0.38529253  0.48164281  0.25689128     0.07300
H1220       H  0.39279021  0.62342985  0.21580961     0.02100
H1221       H  0.37998787  0.62524607  0.26943919     0.02600
H1222       H  0.35014586  0.60071328  0.23003313     0.06100
H1223       H  0.40305814  0.61579865  0.38658127     0.05100
H1224       H  0.40528509  0.58267521  0.36180066    -0.00700
H1225       H  0.37865577  0.59642009  0.34038970     0.00800
H1226       H  0.50853762  0.68350297  0.21445173     0.04500
H1227       H  0.53352779  0.70281422  0.26001740     0.06400
H1228       H  0.50697372  0.71698668  0.23902183     0.07300
C1229       C  0.67970649  0.83228365  0.26349689    -0.22300
C1230       C  0.68618706  0.81183537  0.28933931     0.09600
C1231       C  0.67278284  0.80460007  0.33069659     0.10000
C1232       C  0.65280770  0.81701515  0.34455880    -0.17300
C1233       C  0.64409621  0.83553255  0.31794568    -0.27700
C1234       C  0.65862926  0.84390988  0.27694805     0.18400
C1235       C  0.70754505  0.79877660  0.27334940     0.12300
C1236       C  0.67793917  0.78222476  0.35982204    -0.12000
H1237       H  0.64242640  0.81052502  0.37618833     0.12600
C1238       C  0.65181968  0.86451530  0.24685347    -0.22900
H1239       H  0.69072315  0.83865822  0.23219858     0.08300
C1240       C  0.69798980  0.77562497  0.23991611     0.04600
C1241       C  0.71951243  0.76470282  0.22608718    -0.20100
C1242       C  0.75033073  0.77596841  0.24524109    -0.12400
C1243       C  0.75866514  0.79740425  0.28074504     0.13300
C1244       C  0.73763427  0.80892277  0.29347064    -0.22800
C1245       C  0.66500482  0.76224683  0.21898966    -0.05900
H1246       H  0.71278776  0.74838527  0.19902780     0.14800
C1247       C  0.78953294  0.80804947  0.30621575    -0.16100
H1248       H  0.74494550  0.82639494  0.31929721     0.09200
H1249       H  0.62556175  0.85172090  0.23803409     0.07000
H1250       H  0.66614892  0.86961524  0.21700506     0.08200
H1251       H  0.65858438  0.88827859  0.26206647     0.07300
H1252       H  0.70411837  0.79340160  0.36862850     0.02100
H1253       H  0.66981512  0.75844328  0.34376277     0.02600
H1254       H  0.66377521  0.77728622  0.38979263     0.06100
H1255       H  0.66090638  0.74364284  0.19447774     0.05100
H1256       H  0.66310107  0.78220354  0.20323318    -0.00700
H1257       H  0.64536121  0.75053793  0.24323067     0.00800
H1258       H  0.81147268  0.82535077  0.28780544     0.04500
H1259       H  0.79139447  0.78635702  0.31539543     0.06400
H1260       H  0.78965677  0.82085704  0.33590323     0.07300
C1261       C  0.52533086  0.75849604  0.55356092    -0.22300
C1262       C  0.55782145  0.77072886  0.56645920     0.09600
C1263       C  0.58291532  0.78241473  0.53563986     0.10000
C1264       C  0.57477395  0.78110045  0.49245786    -0.17300
C1265       C  0.54217530  0.76892756  0.47931853    -0.27700
C1266       C  0.51714080  0.75787047  0.51058521     0.18400
C1267       C  0.56415051  0.76777483  0.61195327     0.12300
C1268       C  0.61830207  0.79684429  0.54834343    -0.12000
H1269       H  0.59411421  0.79025547  0.46886694     0.12600
C1270       C  0.48160840  0.74455619  0.49924251    -0.22900
H1271       H  0.50616525  0.74900964  0.57741700     0.08300
C1272       C  0.55967014  0.78598884  0.64423566     0.04600
C1273       C  0.56149062  0.77860334  0.68708915    -0.20100
C1274       C  0.56677991  0.75285606  0.69827512    -0.12400
C1275       C  0.57332275  0.73606544  0.66564438     0.13300
C1276       C  0.57180421  0.74375720  0.62307464    -0.22800
C1277       C  0.55269459  0.81295075  0.63350687    -0.05900
H1278       H  0.55735283  0.79204417  0.71185337     0.14800
C1279       C  0.58202644  0.70999074  0.67494422    -0.16100
H1280       H  0.57527378  0.72994971  0.59809702     0.09200
H1281       H  0.46543474  0.73486922  0.52752262     0.07000
H1282       H  0.47364429  0.72427493  0.47599952     0.08200
H1283       H  0.47804379  0.76422052  0.48571532     0.07300
H1284       H  0.62216459  0.77815034  0.56432714     0.02100
H1285       H  0.62526140  0.81767764  0.57038717     0.02600
H1286       H  0.63487692  0.80597584  0.52038411     0.06100
H1287       H  0.55068042  0.82524382  0.66252581     0.05100
H1288       H  0.52925540  0.80293880  0.61588310    -0.00700
H1289       H  0.57283271  0.83156272  0.61359801     0.00800
H1290       H  0.58963399  0.70228000  0.64576391     0.04500
H1291       H  0.56057361  0.68785879  0.68806693     0.06400
H1292       H  0.60274660  0.71943111  0.69770631     0.07300
C1293       C  0.58432388  0.77983160  0.03993730    -0.22300
C1294       C  0.56004992  0.75976142  0.06905576     0.09600
C1295       C  0.53049012  0.73329196  0.05401547     0.10000
C1296       C  0.52583376  0.72756787  0.01013538    -0.17300
C1297       C  0.54972420  0.74804256  0.98042483    -0.27700
C1298       C  0.57966349  0.77436677  0.99585338     0.18400
C1299       C  0.56356543  0.77028033  0.11410586     0.12300
C1300       C  0.50331425  0.71176889  0.08418730    -0.12000
H1301       H  0.50287340  0.70729338  0.99901071     0.12600
C1302       C  0.60707260  0.79658800  0.96651573    -0.22900
H1303       H  0.60670652  0.80047313  0.05183865     0.08300
C1304       C  0.57458569  0.75752962  0.14649534     0.04600
C1305       C  0.57477512  0.76721071  0.18896578    -0.20100
C1306       C  0.56450437  0.78968099  0.19975258    -0.12400
C1307       C  0.55494876  0.80352034  0.16614578     0.13300
C1308       C  0.55454210  0.79339598  0.12422714    -0.22800
C1309       C  0.58640799  0.73405806  0.13615174    -0.05900
H1310       H  0.58265745  0.75684355  0.21380942     0.14800
C1311       C  0.54492998  0.82898067  0.17300108    -0.16100
H1312       H  0.54654723  0.80325411  0.09881330     0.09200
H1313       H  0.62910136  0.81466054  0.98431405     0.07000
H1314       H  0.59918539  0.81050266  0.94608359     0.08200
H1315       H  0.61428158  0.78184534  0.94655214     0.07300
H1316       H  0.49527588  0.72668913  0.10231491     0.02100
H1317       H  0.51198014  0.69975161  0.10677936     0.02600
H1318       H  0.48170039  0.69232877  0.06711431     0.06100
H1319       H  0.59449856  0.72663484  0.16508895     0.05100
H1320       H  0.60749086  0.74584770  0.11394775    -0.00700
H1321       H  0.56652853  0.71170827  0.12101378     0.00800
H1322       H  0.56497802  0.85075890  0.18903961     0.04500
H1323       H  0.52204091  0.81858966  0.19198886     0.06400
H1324       H  0.53988429  0.83756525  0.14261353     0.07300
C1325       C  0.33896291  0.76193765  0.34045259    -0.22300
C1326       C  0.34969966  0.78089773  0.30348047     0.09600
C1327       C  0.32835332  0.78793983  0.28084702     0.10000
C1328       C  0.29656368  0.77626289  0.29628540    -0.17300
C1329       C  0.28556176  0.75749408  0.33379419    -0.27700
C1330       C  0.30712311  0.74999491  0.35598734     0.18400
C1331       C  0.38377291  0.79320916  0.28995917     0.12300
C1332       C  0.33920545  0.80782046  0.24063303    -0.12000
H1333       H  0.28013212  0.78167754  0.27862795     0.12600
C1334       C  0.29739218  0.73023617  0.39640314    -0.22900
H1335       H  0.35582089  0.75668458  0.35737056     0.08300
C1336       C  0.40970206  0.82092488  0.30954619     0.04600
C1337       C  0.44174350  0.82710704  0.30412781    -0.20100
C1338       C  0.44793306  0.80529776  0.28118670    -0.12400
C1339       C  0.42242222  0.77964465  0.25784956     0.13300
C1340       C  0.39042997  0.77400322  0.26231129    -0.22800
C1341       C  0.40332951  0.84256802  0.33850977    -0.05900
H1342       H  0.46140922  0.84680088  0.32195114     0.14800
C1343       C  0.42875365  0.75764415  0.22951439    -0.16100
H1344       H  0.37028413  0.75312928  0.24681431     0.09200
H1345       H  0.28922917  0.74187752  0.42043045     0.07000
H1346       H  0.31812026  0.72851116  0.41028901     0.08200
H1347       H  0.27743771  0.70492752  0.38985690     0.07300
H1348       H  0.34634260  0.79527704  0.21664524     0.02100
H1349       H  0.36053270  0.83233958  0.24737752     0.02600
H1350       H  0.31941487  0.81117939  0.22685553     0.06100
H1351       H  0.42643895  0.86308314  0.35139928     0.05100
H1352       H  0.38795726  0.82818171  0.36578777    -0.00700
H1353       H  0.39044108  0.85304078  0.32069109     0.00800
H1354       H  0.43721011  0.74349006  0.24840946     0.04500
H1355       H  0.44774111  0.77263523  0.20565238     0.06400
H1356       H  0.40628236  0.73987117  0.21220516     0.07300
C1357       C  0.82535912  0.56141321  0.12123643    -0.22300
C1358       C  0.83646817  0.59210875  0.10271588     0.09600
C1359       C  0.86053305  0.60236503  0.07031272     0.10000
C1360       C  0.87014918  0.58034129  0.05436205    -0.17300
C1361       C  0.85737804  0.54864249  0.07120895    -0.27700
C1362       C  0.83570043  0.53986934  0.10661640     0.18400
C1363       C  0.82468750  0.61379345  0.12117811     0.12300
C1364       C  0.87708321  0.63689528  0.05374589    -0.12000
H1365       H  0.88716124  0.58771550  0.02798970     0.12600
C1366       C  0.82377951  0.50814118  0.13032057    -0.22900
H1367       H  0.80826553  0.55419900  0.14753510     0.08300
C1368       C  0.80172159  0.62013075  0.10063601     0.04600
C1369       C  0.79227699  0.64130161  0.11989151    -0.20100
C1370       C  0.80414191  0.65549263  0.16012667    -0.12400
C1371       C  0.82439631  0.64590211  0.18242650     0.13300
C1372       C  0.83459843  0.62581979  0.16239564    -0.22800
C1373       C  0.78592721  0.60336037  0.05947268    -0.05900
H1374       H  0.77563651  0.64689259  0.10326159     0.14800
C1375       C  0.83565536  0.65633841  0.22758364    -0.16100
H1376       H  0.85078291  0.61951094  0.17906923     0.09200
H1377       H  0.81095538  0.50757260  0.16020817     0.07000
H1378       H  0.84495301  0.50519219  0.13900285     0.08200
H1379       H  0.80605857  0.48711755  0.11085845     0.07300
H1380       H  0.88944243  0.65422840  0.08035354     0.02100
H1381       H  0.85908641  0.64243024  0.03910659     0.02600
H1382       H  0.89586454  0.64112875  0.02939693     0.06100
H1383       H  0.76807233  0.61045798  0.04809898     0.05100
H1384       H  0.77261315  0.57649955  0.06435341    -0.00700
H1385       H  0.80449549  0.60958529  0.03426277     0.00800
H1386       H  0.84768266  0.64328231  0.24105813     0.04500
H1387       H  0.81431404  0.65070802  0.24813093     0.06400
H1388       H  0.85395520  0.68279774  0.22890546     0.07300
C1389       C  0.01283121  0.50020492  0.91512651    -0.22300
C1390       C  0.02287172  0.48200648  0.93973483     0.09600
C1391       C  0.01278218  0.47545380  0.98248722     0.10000
C1392       C  0.99130991  0.48528653  0.99882105    -0.17300
C1393       C  0.97885391  0.50126741  0.97352485    -0.27700
C1394       C  0.99101908  0.50996073  0.93135312     0.18400
C1395       C  0.04554484  0.47162749  0.92137395     0.12300
C1396       C  0.02388457  0.45707772  0.01064219    -0.12000
H1397       H  0.98288500  0.47885175  0.03129937     0.12600
C1398       C  0.98075170  0.52874196  0.90275362    -0.22900
H1399       H  0.02162816  0.50623171  0.88273417     0.08300
C1400       C  0.03457342  0.44299059  0.89669614     0.04600
C1401       C  0.05731014  0.43409111  0.88153257    -0.20100
C1402       C  0.09110500  0.45338471  0.89000109    -0.12400
C1403       C  0.10171590  0.48219419  0.91551292     0.13300
C1404       C  0.07878621  0.49046135  0.93072722    -0.22800
C1405       C  0.99886859  0.42207623  0.88601707    -0.05900
H1406       H  0.04867694  0.41249349  0.86185952     0.14800
C1407       C  0.13711850  0.50538386  0.92695569    -0.16100
H1408       H  0.08689311  0.51224677  0.94993885     0.09200
H1409       H  0.95415269  0.51419341  0.89608109     0.07000
H1410       H  0.99370734  0.53448197  0.87173445     0.08200
H1411       H  0.98659255  0.55221490  0.91810679     0.07300
H1412       H  0.05095056  0.47099353  0.01384838     0.02100
H1413       H  0.01626993  0.43273769  0.99658954     0.02600
H1414       H  0.01316749  0.45326132  0.04300186     0.06100
H1415       H  0.99406500  0.40031991  0.86696460     0.05100
H1416       H  0.99083392  0.43663698  0.86721089    -0.00700
H1417       H  0.98420752  0.41351277  0.91567716     0.00800
H1418       H  0.13986197  0.52479955  0.94933700     0.04500
H1419       H  0.15134462  0.51806189  0.89809665     0.06400
H1420       H  0.14777699  0.49193556  0.94275732     0.07300
C1421       C  0.85615775  0.22785076  0.57517847    -0.22300
C1422       C  0.82514726  0.21041768  0.59450543     0.09600
C1423       C  0.80611113  0.22556679  0.59863062     0.10000
C1424       C  0.81851001  0.25766514  0.58397811    -0.17300
C1425       C  0.84930256  0.27537421  0.56347494    -0.27700
C1426       C  0.86832157  0.25987469  0.55913800     0.18400
C1427       C  0.81332419  0.17671428  0.61130535     0.12300
C1428       C  0.77206255  0.20743942  0.61716176    -0.12000
H1429       H  0.80318114  0.26854923  0.58765726     0.12600
C1430       C  0.90093571  0.27630022  0.53686923    -0.22900
H1431       H  0.87075982  0.21609709  0.57215755     0.08300
C1432       C  0.80227322  0.14924278  0.58432910     0.04600
C1433       C  0.79396250  0.11856081  0.60175345    -0.20100
C1434       C  0.79632811  0.11456946  0.64569611    -0.12400
C1435       C  0.80382363  0.14142702  0.67291470     0.13300
C1436       C  0.81284579  0.17214417  0.65536814    -0.22800
C1437       C  0.79977595  0.15240809  0.53710434    -0.05900
H1438       H  0.78809122  0.09827871  0.58052722     0.14800
C1439       C  0.80302871  0.13868108  0.72066186    -0.16100
H1440       H  0.82006810  0.19288874  0.67632287     0.09200
H1441       H  0.89774077  0.28150238  0.50337715     0.07000
H1442       H  0.91232516  0.26064756  0.53649597     0.08200
H1443       H  0.91798609  0.29941014  0.55346819     0.07300
H1444       H  0.77307621  0.20084628  0.65070832     0.02100
H1445       H  0.75678144  0.18482713  0.59851909     0.02600
H1446       H  0.75989009  0.22236945  0.61648856     0.06100
H1447       H  0.78999140  0.12849113  0.52071941     0.05100
H1448       H  0.82429205  0.16945725  0.52371256    -0.00700
H1449       H  0.78294436  0.16186691  0.53049035     0.00800
H1450       H  0.82813150  0.15393009  0.73362132     0.04500
H1451       H  0.79291345  0.11314152  0.73166513     0.06400
H1452       H  0.78702151  0.14754224  0.73386555     0.07300
C1453       C  0.01902803  0.48937603  0.43992030    -0.22300
C1454       C  0.01799997  0.51634225  0.45714736     0.09600
C1455       C  0.99516043  0.51101659  0.48932122     0.10000
C1456       C  0.97387245  0.47910276  0.50346893    -0.17300
C1457       C  0.97361662  0.45149243  0.48549032    -0.27700
C1458       C  0.99689160  0.45699894  0.45325197     0.18400
C1459       C  0.04114993  0.55017796  0.44187488     0.12300
C1460       C  0.99281541  0.53909927  0.50831028    -0.12000
H1461       H  0.95631351  0.47584507  0.52791368     0.12600
C1462       C  0.99835529  0.42912820  0.43230315    -0.22900
H1463       H  0.03681107  0.49366838  0.41529379     0.08300
C1464       C  0.07185049  0.56959692  0.46139149     0.04600
C1465       C  0.09252552  0.60173044  0.44712083    -0.20100
C1466       C  0.08371925  0.61524128  0.41313701    -0.12400
C1467       C  0.05241051  0.59582553  0.39425809     0.13300
C1468       C  0.03152638  0.56370566  0.40910378    -0.22800
C1469       C  0.08303428  0.55615378  0.49690991    -0.05900
H1470       H  0.11636465  0.61607458  0.46182814     0.14800
C1471       C  0.04132061  0.60801295  0.35724239    -0.16100
H1472       H  0.00767098  0.54880567  0.39466423     0.09200
H1473       H  0.01892205  0.43797720  0.40929500     0.07000
H1474       H  0.97534897  0.41360074  0.41452613     0.08200
H1475       H  0.00194262  0.41428836  0.45673416     0.07300
H1476       H  0.98683496  0.55165062  0.48305507     0.02100
H1477       H  0.01648794  0.55682450  0.52320735     0.02600
H1478       H  0.97347179  0.53076386  0.53304960     0.06100
H1479       H  0.10779007  0.57440558  0.50857641     0.05100
H1480       H  0.08399042  0.53440200  0.48551794    -0.00700
H1481       H  0.06572621  0.54895343  0.52401999     0.00800
H1482       H  0.05849742  0.61391294  0.33017902     0.04500
H1483       H  0.04031642  0.63011561  0.36677139     0.06400
H1484       H  0.01651518  0.58942671  0.34611712     0.07300
C1485       C  0.89708295  0.42304294  0.80044630    -0.22300
C1486       C  0.88109847  0.43398223  0.77314442     0.09600
C1487       C  0.86987791  0.45444217  0.78904677     0.10000
C1488       C  0.87377788  0.46258840  0.83222824    -0.17300
C1489       C  0.88909619  0.45121649  0.86051926    -0.27700
C1490       C  0.90155961  0.43160071  0.84388112     0.18400
C1491       C  0.87627421  0.42404354  0.72779475     0.12300
C1492       C  0.85396915  0.46796877  0.76027937    -0.12000
H1493       H  0.86434336  0.47786500  0.84380987     0.12600
C1494       C  0.92011907  0.42005265  0.87091104    -0.22900
H1495       H  0.90609622  0.40773308  0.78759486     0.08300
C1496       C  0.90126482  0.44056232  0.69755893     0.04600
C1497       C  0.89480463  0.43186830  0.65453086    -0.20100
C1498       C  0.86385236  0.40697031  0.64075986    -0.12400
C1499       C  0.83870990  0.39044809  0.67140426     0.13300
C1500       C  0.84536069  0.39925021  0.71448107    -0.22800
C1501       C  0.93459025  0.46773867  0.71067437    -0.05900
H1502       H  0.91426216  0.44452570  0.63151373     0.14800
C1503       C  0.80454818  0.36436031  0.65919739    -0.16100
H1504       H  0.82619392  0.38706853  0.73800489     0.09200
H1505       H  0.94172460  0.44141273  0.88532437     0.07000
H1506       H  0.92905720  0.40623080  0.85197826     0.08200
H1507       H  0.90410828  0.40353696  0.89626671     0.07300
H1508       H  0.83133902  0.44767262  0.74615617     0.02100
H1509       H  0.87117465  0.48245806  0.73443754     0.02600
H1510       H  0.84716572  0.48417034  0.77768157     0.06100
H1511       H  0.95126419  0.47836203  0.68300244     0.05100
H1512       H  0.94590519  0.45825138  0.73324966    -0.00700
H1513       H  0.93225174  0.48755905  0.72627930     0.00800
H1514       H  0.78772700  0.35598679  0.68694753     0.04500
H1515       H  0.80489000  0.34268580  0.64625483     0.06400
H1516       H  0.79442479  0.37409671  0.63517370     0.07300
C1517       C  0.91506283  0.44968345  0.30185156    -0.22300
C1518       C  0.89085553  0.42522268  0.27604855     0.09600
C1519       C  0.86769765  0.39526776  0.29435850     0.10000
C1520       C  0.86951824  0.39014037  0.33777063    -0.17300
C1521       C  0.89398294  0.41412929  0.36388432    -0.27700
C1522       C  0.91692036  0.44453475  0.34571072     0.18400
C1523       C  0.88899465  0.43124718  0.23008551     0.12300
C1524       C  0.84078502  0.36867743  0.26810449    -0.12000
H1525       H  0.85150417  0.36698830  0.35147523     0.12600
C1526       C  0.94394349  0.47103343  0.37177103    -0.22900
H1527       H  0.93260273  0.47275750  0.28753672     0.08300
C1528       C  0.87238292  0.44725331  0.21597159     0.04600
C1529       C  0.86727076  0.44865309  0.17231841    -0.20100
C1530       C  0.87801555  0.43412699  0.14182429    -0.12400
C1531       C  0.89527802  0.41845984  0.15630536     0.13300
C1532       C  0.90055516  0.41737587  0.20020389    -0.22800
C1533       C  0.85916810  0.46204201  0.24714373    -0.05900
H1534       H  0.85431391  0.46096263  0.16215624     0.14800
C1535       C  0.90741172  0.40190976  0.12637108    -0.16100
H1536       H  0.91293496  0.40473032  0.21153292     0.09200
H1537       H  0.93344114  0.47938185  0.39711896     0.07000
H1538       H  0.96038126  0.49260561  0.35209607     0.08200
H1539       H  0.95893535  0.46153721  0.38626608     0.07300
H1540       H  0.85154549  0.36061637  0.24274318     0.02100
H1541       H  0.82566665  0.37799059  0.25337612     0.02600
H1542       H  0.82438414  0.34698017  0.28761885     0.06100
H1543       H  0.84646357  0.47341099  0.23086991     0.05100
H1544       H  0.87958060  0.48124145  0.26613417    -0.00700
H1545       H  0.84137123  0.44282386  0.26883270     0.00800
H1546       H  0.91916293  0.38999332  0.14364485     0.04500
H1547       H  0.92601682  0.42016547  0.10447922     0.06400
H1548       H  0.88657992  0.38267382  0.10795270     0.07300
C1549       C  0.73426156  0.56721293  0.62250134    -0.22300
C1550       C  0.75441480  0.59697528  0.60195932     0.09600
C1551       C  0.74175995  0.60544183  0.56649499     0.10000
C1552       C  0.70981464  0.58345812  0.55159965    -0.17300
C1553       C  0.68987474  0.55314158  0.57148956    -0.27700
C1554       C  0.70226565  0.54546215  0.60828959     0.18400
C1555       C  0.78773036  0.61944372  0.62023681     0.12300
C1556       C  0.76173033  0.63790008  0.54479013    -0.12000
H1557       H  0.70081558  0.58955719  0.52341326     0.12600
C1558       C  0.68185534  0.51464320  0.63360769    -0.22900
H1559       H  0.74374824  0.56094586  0.65007420     0.08300
C1560       C  0.79107951  0.63488461  0.65974861     0.04600
C1561       C  0.82237257  0.65468106  0.67711909    -0.20100
C1562       C  0.85137625  0.66134033  0.65546487    -0.12400
C1563       C  0.84797011  0.64585723  0.61552903     0.13300
C1564       C  0.81624519  0.62470943  0.59891059    -0.22800
C1565       C  0.76163167  0.63172171  0.68300646    -0.05900
H1566       H  0.82398294  0.66627552  0.70743706     0.14800
C1567       C  0.87735396  0.65170516  0.58985005    -0.16100
H1568       H  0.81364702  0.61259907  0.56870755     0.09200
H1569       H  0.69402701  0.51476679  0.66386715     0.07000
H1570       H  0.67798214  0.49285908  0.61548312     0.08200
H1571       H  0.65788498  0.51238699  0.64169919     0.07300
H1572       H  0.78481795  0.64025571  0.53227288     0.02100
H1573       H  0.76752020  0.65777539  0.56793510     0.02600
H1574       H  0.74828237  0.64085230  0.51779889     0.06100
H1575       H  0.76869962  0.64684652  0.71232823     0.05100
H1576       H  0.74505231  0.60597526  0.69246922    -0.00700
H1577       H  0.74819657  0.63994921  0.66211255     0.00800
H1578       H  0.87013454  0.63658949  0.56051524     0.04500
H1579       H  0.89312356  0.64533654  0.60899606     0.06400
H1580       H  0.89150413  0.67769050  0.57996032     0.07300
C1581       C  0.48434711  0.50323131  0.41852369    -0.22300
C1582       C  0.45584078  0.48365185  0.44224276     0.09600
C1583       C  0.45907967  0.47547237  0.48430589     0.10000
C1584       C  0.49044378  0.48618126  0.50121816    -0.17300
C1585       C  0.51928675  0.50400376  0.47688518    -0.27700
C1586       C  0.51595214  0.51329497  0.43501012     0.18400
C1587       C  0.42275801  0.47243493  0.42311725     0.12300
C1588       C  0.42929225  0.45423183  0.51096826    -0.12000
H1589       H  0.49218299  0.47889738  0.53329456     0.12600
C1590       C  0.54517742  0.53283209  0.40679188    -0.22900
H1591       H  0.48176616  0.50992599  0.38644414     0.08300
C1592       C  0.40618550  0.48985433  0.43009772     0.04600
C1593       C  0.37455803  0.47790244  0.41341943    -0.20100
C1594       C  0.35882115  0.44936616  0.38792132    -0.12400
C1595       C  0.37587058  0.43210089  0.38054492     0.13300
C1596       C  0.40731539  0.44362531  0.39868148    -0.22800
C1597       C  0.42231725  0.52176718  0.45416418    -0.05900
H1598       H  0.36253101  0.49191411  0.41948964     0.14800
C1599       C  0.36175640  0.40213117  0.35282748    -0.16100
H1600       H  0.42018429  0.43031566  0.39331826     0.09200
H1601       H  0.53802045  0.53878552  0.37592251     0.07000
H1602       H  0.55757214  0.51869203  0.39971967     0.08200
H1603       H  0.56252626  0.55620524  0.42263197     0.07300
H1604       H  0.41419035  0.43027905  0.49501235     0.02100
H1605       H  0.41433629  0.46612894  0.51530345     0.02600
H1606       H  0.43604811  0.44961961  0.54295893     0.06100
H1607       H  0.40626898  0.53267601  0.45622055     0.05100
H1608       H  0.44526021  0.53951321  0.43774957    -0.00700
H1609       H  0.42828575  0.51801534  0.48699018     0.00800
H1610       H  0.35795590  0.40842035  0.32015267     0.04500
H1611       H  0.33810652  0.38294445  0.36623236     0.06400
H1612       H  0.37834808  0.39185053  0.35060462     0.07300
C1613       C  0.71062250  0.44480952  0.42140356    -0.22300
C1614       C  0.73823567  0.46301953  0.44687281     0.09600
C1615       C  0.74292409  0.49158647  0.46742031     0.10000
C1616       C  0.71798930  0.49943397  0.46557369    -0.17300
C1617       C  0.68836864  0.47853870  0.44496142    -0.27700
C1618       C  0.68543417  0.45221962  0.42030840     0.18400
C1619       C  0.75887625  0.44880538  0.45716439     0.12300
C1620       C  0.77296345  0.51216862  0.49395074    -0.12000
H1621       H  0.72001899  0.51952432  0.48460748     0.12600
C1622       C  0.65509638  0.43038778  0.39494060    -0.22900
H1623       H  0.70753391  0.42321186  0.40508986     0.08300
C1624       C  0.75061507  0.42674602  0.49130094     0.04600
C1625       C  0.77109441  0.41418765  0.50102221    -0.20100
C1626       C  0.79957251  0.42311964  0.47730606    -0.12400
C1627       C  0.80708712  0.44439272  0.44194823     0.13300
C1628       C  0.78660056  0.45711340  0.43256605    -0.22800
C1629       C  0.72025989  0.41661621  0.51758329    -0.05900
H1630       H  0.76509681  0.39773690  0.52777798     0.14800
C1631       C  0.83587488  0.45307731  0.41306093    -0.16100
H1632       H  0.79218484  0.47365051  0.40599408     0.09200
H1633       H  0.64319998  0.40515658  0.40784890     0.07000
H1634       H  0.66194102  0.42994897  0.36127938     0.08200
H1635       H  0.63708688  0.43897847  0.39543418     0.07300
H1636       H  0.79517960  0.52146985  0.47378815     0.02100
H1637       H  0.77449553  0.49729766  0.52016257     0.02600
H1638       H  0.77254235  0.53347155  0.50822249     0.06100
H1639       H  0.71752359  0.39921865  0.54310703     0.05100
H1640       H  0.69821504  0.40448830  0.49700257    -0.00700
H1641       H  0.72146699  0.43841878  0.53273393     0.00800
H1642       H  0.83610547  0.46765378  0.38527405     0.04500
H1643       H  0.83464940  0.43044646  0.40076740     0.06400
H1644       H  0.85921590  0.46803025  0.43040787     0.07300
C1645       C  0.34937710  0.15104174  0.08999884    -0.22300
C1646       C  0.35566530  0.17920371  0.11292217     0.09600
C1647       C  0.34225704  0.17538510  0.15392055     0.10000
C1648       C  0.32232836  0.14386718  0.17054559    -0.17300
C1649       C  0.31414764  0.11519919  0.14706567    -0.27700
C1650       C  0.32872202  0.11916311  0.10631088     0.18400
C1651       C  0.37805721  0.21263461  0.09512692     0.12300
C1652       C  0.34865798  0.20473453  0.18012598    -0.12000
H1653       H  0.31196846  0.14182209  0.20189157     0.12600
C1654       C  0.32263673  0.09022937  0.07959592    -0.22900
H1655       H  0.36043164  0.15406125  0.05890412     0.08300
C1656       C  0.41210560  0.22813036  0.10167264     0.04600
C1657       C  0.43248014  0.26004175  0.08650359    -0.20100
C1658       C  0.42021276  0.27755991  0.06394119    -0.12400
C1659       C  0.38572059  0.26197735  0.05793942     0.13300
C1660       C  0.36520150  0.22990897  0.07381353    -0.22800
C1661       C  0.42707091  0.21085420  0.12475748    -0.05900
H1662       H  0.45857028  0.27106597  0.09189841     0.14800
C1663       C  0.37021030  0.27851784  0.03452275    -0.16100
H1664       H  0.33892303  0.21811902  0.06941218     0.09200
H1665       H  0.33717187  0.09785645  0.04976464     0.07000
H1666       H  0.29645941  0.07600166  0.07056961     0.08200
H1667       H  0.32962797  0.07447950  0.09763119     0.07300
H1668       H  0.33941152  0.21904597  0.16307964     0.02100
H1669       H  0.37535376  0.22047023  0.18571851     0.02600
H1670       H  0.33629079  0.19759845  0.21152803     0.06100
H1671       H  0.45410823  0.22630506  0.12728787     0.05100
H1672       H  0.42149804  0.18817380  0.10740894    -0.00700
H1673       H  0.41691807  0.20443683  0.15741295     0.00800
H1674       H  0.37931968  0.28364704  0.00130238     0.04500
H1675       H  0.37611053  0.30167575  0.05083686     0.06400
H1676       H  0.34311898  0.26297857  0.03330559     0.07300
C1677       C  0.67607385  0.44428469  0.00382776    -0.22300
C1678       C  0.68556491  0.45668444  0.96259005     0.09600
C1679       C  0.66245671  0.45693062  0.93457137     0.10000
C1680       C  0.63001620  0.44421294  0.94834497    -0.17300
C1681       C  0.62021172  0.43105777  0.98937937    -0.27700
C1682       C  0.64370929  0.43161423  0.01773469     0.18400
C1683       C  0.71958409  0.46752720  0.94954016     0.12300
C1684       C  0.67210647  0.47074702  0.89043621    -0.12000
H1685       H  0.61205258  0.44398976  0.92667900     0.12600
C1686       C  0.63517674  0.41992610  0.06296850    -0.22900
H1687       H  0.69415314  0.44432967  0.02512652     0.08300
C1688       C  0.74614496  0.49640653  0.96608629     0.04600
C1689       C  0.77786957  0.50111987  0.96283907    -0.20100
C1690       C  0.78313190  0.47707672  0.94448154    -0.12400
C1691       C  0.75717609  0.45039071  0.92307338     0.13300
C1692       C  0.72553191  0.44582521  0.92602528    -0.22800
C1693       C  0.74077939  0.52122538  0.98929517    -0.05900
H1694       H  0.79788532  0.52169628  0.97900833     0.14800
C1695       C  0.76199564  0.42558140  0.89884829    -0.16100
H1696       H  0.70511749  0.42400825  0.91254498     0.09200
H1697       H  0.65709676  0.42414447  0.08124929     0.07000
H1698       H  0.61739833  0.39330805  0.06359038     0.08200
H1699       H  0.62447544  0.43330921  0.07918930     0.07300
H1700       H  0.68111185  0.45671202  0.87216106     0.02100
H1701       H  0.69181896  0.49673513  0.89229834     0.02600
H1702       H  0.65112043  0.46957448  0.87288059     0.06100
H1703       H  0.76431904  0.54262498  0.99943497     0.05100
H1704       H  0.72563855  0.51012213  0.01808137    -0.00700
H1705       H  0.72809049  0.53008798  0.96807407     0.00800
H1706       H  0.75328629  0.42399233  0.86568854     0.04500
H1707       H  0.74771228  0.40123829  0.91409116     0.06400
H1708       H  0.78810918  0.43217833  0.89734283     0.07300
C1709       C  0.47181276  0.48934306  0.92337129    -0.22300
C1710       C  0.49442526  0.51693334  0.94676058     0.09600
C1711       C  0.50487591  0.51195588  0.98660194     0.10000
C1712       C  0.49268894  0.48001389  0.00197185    -0.17300
C1713       C  0.47105846  0.45195399  0.97818201    -0.27700
C1714       C  0.46035967  0.45703208  0.93814423     0.18400
C1715       C  0.50613887  0.55085370  0.93006496     0.12300
C1716       C  0.53016154  0.54033294  0.01238826    -0.12000
H1717       H  0.50151668  0.47713172  0.03250464     0.12600
C1718       C  0.43733267  0.42884286  0.91041608    -0.22900
H1719       H  0.46343120  0.49314148  0.89300778     0.08300
C1720       C  0.52779695  0.56410948  0.89509726     0.04600
C1721       C  0.53717841  0.59589163  0.88031025    -0.20100
C1722       C  0.52591746  0.61520797  0.90005062    -0.12400
C1723       C  0.50616553  0.60263466  0.93712156     0.13300
C1724       C  0.49618856  0.57066130  0.95094495    -0.22800
C1725       C  0.54141748  0.54492449  0.87378201    -0.05900
H1726       H  0.55250718  0.60521809  0.85231352     0.14800
C1727       C  0.49593244  0.62287970  0.96319640    -0.16100
H1728       H  0.48020668  0.56086687  0.97831113     0.09200
H1729       H  0.44907271  0.41465337  0.90025259     0.07000
H1730       H  0.43061832  0.43730916  0.88121217     0.08200
H1731       H  0.41445096  0.41276981  0.92814084     0.07300
H1732       H  0.52056056  0.55648381  0.02222771     0.02100
H1733       H  0.55270491  0.55456006  0.99315457     0.02600
H1734       H  0.53699155  0.53206951  0.04167984     0.06100
H1735       H  0.55844433  0.55893944  0.84754291     0.05100
H1736       H  0.52125878  0.52191781  0.86028933    -0.00700
H1737       H  0.55514824  0.53902596  0.89739968     0.00800
H1738       H  0.48425490  0.61064603  0.99358154     0.04500
H1739       H  0.47774773  0.62673524  0.94573793     0.06400
H1740       H  0.51773526  0.64680881  0.97111313     0.07300
C1741       C  0.53620779  0.44883106  0.20553197    -0.22300
C1742       C  0.53666018  0.42658484  0.23442630     0.09600
C1743       C  0.53380316  0.39719428  0.21948463     0.10000
C1744       C  0.53159304  0.39112301  0.17564632    -0.17300
C1745       C  0.53208341  0.41372367  0.14597487    -0.27700
C1746       C  0.53381290  0.44284896  0.16151309     0.18400
C1747       C  0.54332294  0.43594144  0.27979938     0.12300
C1748       C  0.53348755  0.37241847  0.24987739    -0.12000
H1749       H  0.52990287  0.36860489  0.16461463     0.12600
C1750       C  0.53285621  0.46774795  0.13254306    -0.22900
H1751       H  0.53843057  0.47135555  0.21757580     0.08300
C1752       C  0.57571028  0.45293472  0.29492289     0.04600
C1753       C  0.58141803  0.46093599  0.33804491    -0.20100
C1754       C  0.55557341  0.45281757  0.36696617    -0.12400
C1755       C  0.52287478  0.43591678  0.35139347     0.13300
C1756       C  0.51727098  0.42765081  0.30794122    -0.22800
C1757       C  0.60436734  0.46271105  0.26542086    -0.05900
H1758       H  0.60655205  0.47361849  0.34907953     0.14800
C1759       C  0.49374719  0.42688153  0.37963955    -0.16100
H1760       H  0.49245368  0.41463821  0.29575157     0.09200
H1761       H  0.53305438  0.48803718  0.15065772     0.07000
H1762       H  0.51011218  0.45599604  0.11320609     0.08200
H1763       H  0.55467303  0.47873578  0.11150993     0.07300
H1764       H  0.51256580  0.36416493  0.27218180     0.02100
H1765       H  0.55664615  0.38346624  0.26832020     0.02600
H1766       H  0.53093955  0.35061207  0.23298601     0.06100
H1767       H  0.62814938  0.47597778  0.28242869     0.05100
H1768       H  0.60422223  0.47901144  0.24016824    -0.00700
H1769       H  0.60274985  0.44065790  0.25050456     0.00800
H1770       H  0.47040376  0.41496386  0.36151920     0.04500
H1771       H  0.49606928  0.44916591  0.39473991     0.06400
H1772       H  0.49201019  0.40942967  0.40442770     0.07300
C1773       C  0.54768736  0.45547487  0.80848314    -0.22300
C1774       C  0.52851796  0.43189950  0.77808309     0.09600
C1775       C  0.50097265  0.40250482  0.79094604     0.10000
C1776       C  0.49400236  0.39658240  0.83422983    -0.17300
C1777       C  0.51421023  0.41907662  0.86545436    -0.27700
C1778       C  0.54084273  0.44956948  0.85217259     0.18400
C1779       C  0.53917224  0.43666325  0.73326037     0.12300
C1780       C  0.47939547  0.37694096  0.75895797    -0.12000
H1781       H  0.47294919  0.37359787  0.84363328     0.12600
C1782       C  0.56279503  0.47555928  0.88336295    -0.22900
H1783       H  0.56870735  0.47810677  0.79797584     0.08300
C1784       C  0.52879605  0.45198813  0.70375893     0.04600
C1785       C  0.53715071  0.45289251  0.66074685    -0.20100
C1786       C  0.55593976  0.43911372  0.64690626    -0.12400
C1787       C  0.56641927  0.42387207  0.67677933     0.13300
C1788       C  0.55785079  0.42287586  0.71959872    -0.22800
C1789       C  0.50884362  0.46715430  0.71774233    -0.05900
H1790       H  0.52936486  0.46477755  0.63790850     0.14800
C1791       C  0.58546374  0.40744876  0.66365264    -0.16100
H1792       H  0.56520762  0.41071352  0.74258765     0.09200
H1793       H  0.54817336  0.48337487  0.90259304     0.07000
H1794       H  0.58233434  0.49755991  0.86709943     0.08200
H1795       H  0.57485075  0.46597077  0.90450546     0.07300
H1796       H  0.49389642  0.36834827  0.74090480     0.02100
H1797       H  0.46902384  0.38746389  0.73649490     0.02600
H1798       H  0.45870396  0.35537198  0.77443750     0.06100
H1799       H  0.50277561  0.47820580  0.69064426     0.05100
H1800       H  0.52286216  0.48665118  0.74147562    -0.00700
H1801       H  0.48556205  0.44827610  0.73232902     0.00800
H1802       H  0.60998274  0.42583537  0.65160358     0.04500
H1803       H  0.57187327  0.38899209  0.63857663     0.06400
H1804       H  0.58933712  0.39472161  0.69074104     0.07300
C1805       C  0.36225309  0.16011257  0.66419987    -0.22300
C1806       C  0.36231522  0.15334567  0.62073876     0.09600
C1807       C  0.34169365  0.15840512  0.59305564     0.10000
C1808       C  0.32041615  0.16848434  0.60972707    -0.17300
C1809       C  0.31835404  0.17266802  0.65369568    -0.27700
C1810       C  0.34053225  0.16958499  0.68102732     0.18400
C1811       C  0.38480526  0.14188225  0.60485167     0.12300
C1812       C  0.34161718  0.15252022  0.54598672    -0.12000
H1813       H  0.30353887  0.17067186  0.58852509     0.12600
C1814       C  0.34143514  0.17633294  0.72798965    -0.22900
H1815       H  0.37871264  0.15708695  0.68525754     0.08300
C1816       C  0.41872619  0.16357687  0.60140798     0.04600
C1817       C  0.43913124  0.15212604  0.58614464    -0.20100
C1818       C  0.42686304  0.11932875  0.57313165    -0.12400
C1819       C  0.39257941  0.09752140  0.57659738     0.13300
C1820       C  0.37215999  0.10904165  0.59277992    -0.22800
C1821       C  0.43342831  0.19923544  0.61264679    -0.05900
H1822       H  0.46504152  0.16961623  0.58335368     0.14800
C1823       C  0.37712035  0.06227235  0.56322895    -0.16100
H1824       H  0.34602045  0.09241581  0.59555258     0.09200
H1825       H  0.36160422  0.17484363  0.74406544     0.07000
H1826       H  0.31819928  0.15829342  0.74342087     0.08200
H1827       H  0.34543599  0.20133180  0.73300949     0.07300
H1828       H  0.33405196  0.12654477  0.53994795     0.02100
H1829       H  0.36654017  0.16842246  0.53285195     0.02600
H1830       H  0.32431802  0.15794422  0.52880858     0.06100
H1831       H  0.46022474  0.21319030  0.60659036     0.05100
H1832       H  0.42942055  0.20187175  0.64681794    -0.00700
H1833       H  0.42182996  0.21027622  0.59321739     0.00800
H1834       H  0.35034885  0.04869163  0.56951204     0.04500
H1835       H  0.38828244  0.05009161  0.58117191     0.06400
H1836       H  0.38062200  0.06071030  0.52860494     0.07300
C1837       C  0.67030778  0.17220433  0.44293538    -0.22300
C1838       C  0.68848061  0.20340428  0.46026840     0.09600
C1839       C  0.67435503  0.21426261  0.49108380     0.10000
C1840       C  0.64207730  0.19328380  0.50427867    -0.17300
C1841       C  0.62333813  0.16169143  0.48709307    -0.27700
C1842       C  0.63783159  0.15120218  0.45548851     0.18400
C1843       C  0.72256216  0.22461083  0.44631998     0.12300
C1844       C  0.69346150  0.24801614  0.51013009    -0.12000
H1845       H  0.63147750  0.20178007  0.52812797     0.12600
C1846       C  0.61944404  0.11856478  0.43343274    -0.22900
H1847       H  0.68162144  0.16442241  0.41913745     0.08300
C1848       C  0.74859205  0.22362215  0.46688082     0.04600
C1849       C  0.78057280  0.24945447  0.46080843    -0.20100
C1850       C  0.78643500  0.27665918  0.43638650    -0.12400
C1851       C  0.76099077  0.27543821  0.41146507     0.13300
C1852       C  0.72913803  0.24917795  0.41659898    -0.22800
C1853       C  0.74234533  0.19694870  0.49803089    -0.05900
H1854       H  0.80024444  0.25043616  0.47977664     0.14800
C1855       C  0.76659388  0.30252841  0.38143126    -0.16100
H1856       H  0.70903426  0.24926295  0.40001727     0.09200
H1857       H  0.61224113  0.09846232  0.45667417     0.07000
H1858       H  0.63449759  0.11550596  0.40866169     0.08200
H1859       H  0.59753817  0.11652293  0.41740437     0.07300
H1860       H  0.70066637  0.26670997  0.48480965     0.02100
H1861       H  0.71583231  0.25100270  0.52595658     0.02600
H1862       H  0.67887161  0.25250800  0.53412085     0.06100
H1863       H  0.76549729  0.20050588  0.51204717     0.05100
H1864       H  0.72991597  0.17289855  0.48168041    -0.00700
H1865       H  0.72661173  0.19681729  0.52438323     0.00800
H1866       H  0.75840300  0.29231912  0.34904982     0.04500
H1867       H  0.79283127  0.32161840  0.37938701     0.06400
H1868       H  0.75232799  0.31410380  0.39212061     0.07300
C1869       C  0.48096248  0.94781261  0.49403262    -0.22300
C1870       C  0.48197646  0.94354659  0.45005716     0.09600
C1871       C  0.46997827  0.95901187  0.42278731     0.10000
C1872       C  0.46119523  0.98135868  0.43975815    -0.17300
C1873       C  0.46276601  0.98771520  0.48373468    -0.27700
C1874       C  0.47074671  0.96882727  0.51116528     0.18400
C1875       C  0.49349716  0.92096960  0.43399393     0.12300
C1876       C  0.46617492  0.95178288  0.37584789    -0.12000
H1877       H  0.45485863  0.99522801  0.41826766     0.12600
C1878       C  0.46879892  0.97023272  0.55887876    -0.22900
H1879       H  0.48823841  0.93456598  0.51533277     0.08300
C1880       C  0.52508262  0.93224640  0.41659702     0.04600
C1881       C  0.53415330  0.90962954  0.40151206    -0.20100
C1882       C  0.51289501  0.87560628  0.40450045    -0.12400
C1883       C  0.48186015  0.86455939  0.42490489     0.13300
C1884       C  0.47281420  0.88732363  0.43878563    -0.22800
C1885       C  0.54955677  0.96817956  0.41462767    -0.05900
H1886       H  0.55795045  0.91871646  0.38687756     0.14800
C1887       C  0.45748121  0.82889868  0.43272665    -0.16100
H1888       H  0.44907258  0.87876895  0.45342198     0.09200
H1889       H  0.49372869  0.98100736  0.57274589     0.07000
H1890       H  0.45343108  0.94509494  0.57149842     0.08200
H1891       H  0.45730126  0.98451560  0.56958012     0.07300
H1892       H  0.44903512  0.92529998  0.37074428     0.02100
H1893       H  0.49008742  0.95844677  0.36123945     0.02600
H1894       H  0.45618660  0.96560286  0.35917406     0.06100
H1895       H  0.57345780  0.97295833  0.40163935     0.05100
H1896       H  0.55376869  0.97896090  0.44697202    -0.00700
H1897       H  0.54019723  0.98040588  0.39379864     0.00800
H1898       H  0.43608110  0.82552923  0.45157390     0.04500
H1899       H  0.46925863  0.81745217  0.45097067     0.06400
H1900       H  0.44767004  0.81595511  0.40212224     0.07300
C1901       C  0.51724759  0.30671583  0.44320433    -0.22300
C1902       C  0.52232742  0.28703845  0.47170327     0.09600
C1903       C  0.53910343  0.30034514  0.51021568     0.10000
C1904       C  0.54972920  0.33307810  0.51994105    -0.17300
C1905       C  0.54425276  0.35288473  0.49185405    -0.27700
C1906       C  0.52814665  0.33962120  0.45260943     0.18400
C1907       C  0.51165820  0.25293711  0.45995688     0.12300
C1908       C  0.54633473  0.28014832  0.54065488    -0.12000
H1909       H  0.56238069  0.34326104  0.54967752     0.12600
C1910       C  0.52351367  0.36014227  0.41968807    -0.22900
H1911       H  0.50499567  0.29630592  0.41332429     0.08300
C1912       C  0.48225843  0.22665857  0.47575945     0.04600
C1913       C  0.47677484  0.19474939  0.47165717    -0.20100
C1914       C  0.50041328  0.18895768  0.45284181    -0.12400
C1915       C  0.52793757  0.21497798  0.43272020     0.13300
C1916       C  0.53328635  0.24677396  0.43666919    -0.22800
C1917       C  0.45764856  0.23248482  0.49888336    -0.05900
H1918       H  0.45565569  0.17480682  0.48705906     0.14800
C1919       C  0.55274154  0.21008574  0.40851046    -0.16100
H1920       H  0.55544502  0.26707689  0.42368029     0.09200
H1921       H  0.51274320  0.34627811  0.38986609     0.07000
H1922       H  0.54750915  0.38181863  0.41163560     0.08200
H1923       H  0.50657641  0.36814266  0.43186024     0.07300
H1924       H  0.56146525  0.27138189  0.52454253     0.02100
H1925       H  0.52316155  0.25877155  0.55169504     0.02600
H1926       H  0.55996857  0.29447671  0.56904787     0.06100
H1927       H  0.43604961  0.20920151  0.50929905     0.05100
H1928       H  0.44896010  0.24523834  0.47752567    -0.00700
H1929       H  0.46898493  0.24778727  0.52748750     0.00800
H1930       H  0.55528729  0.21994248  0.37585258     0.04500
H1931       H  0.54547456  0.18392606  0.40549887     0.06400
H1932       H  0.57686087  0.22329834  0.42472445     0.07300
C1933       C  0.73698993  0.10716158  0.06862231    -0.22300
C1934       C  0.75147135  0.13233932  0.09892558     0.09600
C1935       C  0.73325365  0.14641725  0.11445131     0.10000
C1936       C  0.70117003  0.13497438  0.09966966    -0.17300
C1937       C  0.68653676  0.11021589  0.06851533    -0.27700
C1938       C  0.70499131  0.09610176  0.05295094     0.18400
C1939       C  0.78524097  0.14289765  0.11513002     0.12300
C1940       C  0.74802651  0.17428546  0.14580622    -0.12000
H1941       H  0.68776862  0.14636669  0.11177400     0.12600
C1942       C  0.69189549  0.07038059  0.01869436    -0.22900
H1943       H  0.75102183  0.09635091  0.05680486     0.08300
C1944       C  0.79033707  0.13312749  0.15542764     0.04600
C1945       C  0.82235412  0.14342075  0.16924984    -0.20100
C1946       C  0.85014954  0.16207313  0.14340761    -0.12400
C1947       C  0.84503055  0.17265838  0.10333641     0.13300
C1948       C  0.81274430  0.16308572  0.08996085    -0.22800
C1949       C  0.76250991  0.11064082  0.18423089    -0.05900
H1950       H  0.82523206  0.13496454  0.20007391     0.14800
C1951       C  0.87311046  0.19357117  0.07410774    -0.16100
H1952       H  0.80883746  0.17087784  0.05923256     0.09200
H1953       H  0.70976684  0.06255575  0.00997905     0.07000
H1954       H  0.68659278  0.08020448  0.98962722     0.08200
H1955       H  0.66924042  0.04846599  0.02993297     0.07300
H1956       H  0.77055118  0.19500804  0.13209349     0.02100
H1957       H  0.75434301  0.16638463  0.17574086     0.02600
H1958       H  0.73087685  0.18317825  0.15377992     0.06100
H1959       H  0.76451198  0.12317892  0.21488054     0.05100
H1960       H  0.76396170  0.08829087  0.19054813    -0.00700
H1961       H  0.73802192  0.10278159  0.17059780     0.00800
H1962       H  0.88549264  0.18006667  0.06362327     0.04500
H1963       H  0.89088336  0.21634633  0.09079035     0.06400
H1964       H  0.86469167  0.20059258  0.04511927     0.07300
C1965       C  0.52935013  0.20906906  0.00517776    -0.22300
C1966       C  0.51642217  0.20580028  0.96419986     0.09600
C1967       C  0.51516377  0.18179138  0.93653662     0.10000
C1968       C  0.52667879  0.16124785  0.95074703    -0.17300
C1969       C  0.53991587  0.16453741  0.99179002    -0.27700
C1970       C  0.54115779  0.18879435  0.01942608     0.18400
C1971       C  0.50576226  0.22903873  0.95112925     0.12300
C1972       C  0.50154082  0.17778779  0.89228192    -0.12000
H1973       H  0.52571531  0.14275295  0.92941455     0.12600
C1974       C  0.55395961  0.19298180  0.06423066    -0.22900
H1975       H  0.53032878  0.22781770  0.02605226     0.08300
C1976       C  0.47696560  0.22690446  0.96776847     0.04600
C1977       C  0.47217537  0.25375416  0.96379193    -0.20100
C1978       C  0.49612926  0.28286671  0.94486216    -0.12400
C1979       C  0.52305623  0.28357623  0.92405578     0.13300
C1980       C  0.52747284  0.25644169  0.92727783    -0.22800
C1981       C  0.45228968  0.19708105  0.99176666    -0.05900
H1982       H  0.45148631  0.25322642  0.97963051     0.14800
C1983       C  0.54768902  0.31327056  0.89975039    -0.16100
H1984       H  0.54922499  0.25758715  0.91396297     0.09200
H1985       H  0.55107788  0.21174904  0.08191592     0.07000
H1986       H  0.58045840  0.20103353  0.06383639     0.08200
H1987       H  0.54028680  0.16953440  0.08173532     0.07300
H1988       H  0.51631665  0.20060854  0.87391473     0.02100
H1989       H  0.47578472  0.17238651  0.89387556     0.02600
H1990       H  0.50195156  0.15749765  0.87495945     0.06100
H1991       H  0.43102570  0.19935529  0.00230850     0.05100
H1992       H  0.46377121  0.19346793  0.02044900    -0.00700
H1993       H  0.44306842  0.17522140  0.97098983     0.00800
H1994       H  0.56619238  0.30892959  0.88379595     0.04500
H1995       H  0.56100252  0.33448831  0.92132139     0.06400
H1996       H  0.53490662  0.31938005  0.87493346     0.07300
C1997       C  0.46083977  0.94287615  0.99898289    -0.22300
C1998       C  0.45397455  0.93944000  0.95538314     0.09600
C1999       C  0.47994856  0.95642047  0.92633783     0.10000
C2000       C  0.51158723  0.97859096  0.94160835    -0.17300
C2001       C  0.51791492  0.98438822  0.98540569    -0.27700
C2002       C  0.49245366  0.96467897  0.01432483     0.18400
C2003       C  0.41962482  0.91715589  0.94092480     0.12300
C2004       C  0.47396898  0.95201204  0.87920697    -0.12000
H2005       H  0.53071536  0.99342992  0.91909937     0.12600
C2006       C  0.49767329  0.96627759  0.06166977    -0.22900
H2007       H  0.44124981  0.92874380  0.02130005     0.08300
C2008       C  0.40822599  0.88386141  0.93319348     0.04600
C2009       C  0.37601355  0.86368472  0.91892681    -0.20100
C2010       C  0.35404383  0.87548863  0.91255669    -0.12400
C2011       C  0.36538807  0.90891856  0.92144033     0.13300
C2012       C  0.39802946  0.92928015  0.93541725    -0.22800
C2013       C  0.43007836  0.86950521  0.94028231    -0.05900
H2014       H  0.36823788  0.83835102  0.91211559     0.14800
C2015       C  0.34331033  0.92322017  0.91711046    -0.16100
H2016       H  0.40684178  0.95487336  0.94201102     0.09200
H2017       H  0.52357176  0.98279207  0.07079884     0.07000
H2018       H  0.49064275  0.94154175  0.07369575     0.08200
H2019       H  0.48201531  0.97457075  0.07734356     0.07300
H2020       H  0.45615536  0.95971528  0.86984557     0.02100
H2021       H  0.46397416  0.92599549  0.87055456     0.02600
H2022       H  0.49691769  0.96657637  0.86088201     0.06100
H2023       H  0.41744084  0.84302694  0.93255840     0.05100
H2024       H  0.43771142  0.87251586  0.97411005    -0.00700
H2025       H  0.45222424  0.88210965  0.92000962     0.00800
H2026       H  0.35567239  0.94914877  0.92757198     0.04500
H2027       H  0.32112221  0.90922342  0.93704361     0.06400
H2028       H  0.33609299  0.92243509  0.88340118     0.07300
C2029       C  0.51153063  0.05657123  0.20480231    -0.22300
C2030       C  0.53468429  0.07698850  0.23477831     0.09600
C2031       C  0.56497821  0.10303045  0.22132539     0.10000
C2032       C  0.57156513  0.10812778  0.17788032    -0.17300
C2033       C  0.54847967  0.08797913  0.14716978    -0.27700
C2034       C  0.51784035  0.06177501  0.16105173     0.18400
C2035       C  0.52549277  0.07336668  0.27999511     0.12300
C2036       C  0.59005472  0.12597867  0.25287256    -0.12000
H2037       H  0.59496411  0.12840331  0.16801129     0.12600
C2038       C  0.49163443  0.03907608  0.13056933    -0.22900
H2039       H  0.48809087  0.03696172  0.21583541     0.08300
C2040       C  0.50726943  0.08716331  0.29577133     0.04600
C2041       C  0.50187885  0.08660185  0.33938452    -0.20100
C2042       C  0.51435178  0.07267086  0.36824697    -0.12400
C2043       C  0.53218710  0.05816889  0.35191209     0.13300
C2044       C  0.53747407  0.05873480  0.30785313    -0.22800
C2045       C  0.49425877  0.10337140  0.26664199    -0.05900
H2046       H  0.48811220  0.09779123  0.35077799     0.14800
C2047       C  0.54578923  0.04210500  0.38001266    -0.16100
H2048       H  0.55162008  0.04835753  0.29501924     0.09200
H2049       H  0.48317307  0.05297525  0.11106073     0.07000
H2050       H  0.46991053  0.01958794  0.14739192     0.08200
H2051       H  0.50143027  0.02701587  0.10976242     0.07300
H2052       H  0.59760471  0.11214640  0.27401439     0.02100
H2053       H  0.57945823  0.13800948  0.27238477     0.02600
H2054       H  0.61233268  0.14538643  0.23690012     0.06100
H2055       H  0.48095557  0.11349205  0.28439276     0.05100
H2056       H  0.47699247  0.08530994  0.24336269    -0.00700
H2057       H  0.51483506  0.12379401  0.24933806     0.00800
H2058       H  0.55868146  0.03201251  0.36130493     0.04500
H2059       H  0.52555705  0.02177633  0.39773816     0.06400
H2060       H  0.56371704  0.06003100  0.40268538     0.07300
C2061       C  0.55936736  0.10598800  0.80374762    -0.22300
C2062       C  0.53775013  0.07714911  0.78241210     0.09600
C2063       C  0.52051052  0.04755408  0.80503627     0.10000
C2064       C  0.52642733  0.04724322  0.84873096    -0.17300
C2065       C  0.54953056  0.07582791  0.86955825    -0.27700
C2066       C  0.56544708  0.10576036  0.84715592     0.18400
C2067       C  0.53411834  0.07897198  0.73614972     0.12300
C2068       C  0.49622840  0.01653614  0.78285093    -0.12000
H2069       H  0.51392332  0.02456731  0.86632646     0.12600
C2070       C  0.58848787  0.13761106  0.86901625    -0.22900
H2071       H  0.57190897  0.12869420  0.78608451     0.08300
C2072       C  0.51452934  0.09094280  0.71945396     0.04600
C2073       C  0.51478693  0.09593829  0.67565131    -0.20100
C2074       C  0.53432887  0.08940834  0.64795509    -0.12400
C2075       C  0.55323288  0.07636538  0.66482944     0.13300
C2076       C  0.55292265  0.07143803  0.70888335    -0.22800
C2077       C  0.49357810  0.09867608  0.74795252    -0.05900
H2078       H  0.49966853  0.10524600  0.66302288     0.14800
C2079       C  0.57466179  0.06871012  0.63722760    -0.16100
H2080       H  0.56802490  0.06240718  0.72236645     0.09200
H2081       H  0.59692492  0.15877492  0.84719413     0.07000
H2082       H  0.61054323  0.13732910  0.88058443     0.08200
H2083       H  0.57586424  0.14154063  0.89625299     0.07300
H2084       H  0.50878482  0.01038889  0.75770129     0.02100
H2085       H  0.47668356  0.01982968  0.76816086     0.02600
H2086       H  0.48448147  0.99564611  0.80516936     0.06100
H2087       H  0.47936745  0.10743131  0.72958945     0.05100
H2088       H  0.50923173  0.11806912  0.77098537    -0.00700
H2089       H  0.47599000  0.07638958  0.76561006     0.00800
H2090       H  0.58887088  0.06032329  0.65629399     0.04500
H2091       H  0.59237549  0.09091282  0.61951851     0.06400
H2092       H  0.55933338  0.04884322  0.61457713     0.07300
C2093       C  0.73820471  0.22667948  0.95565733    -0.22300
C2094       C  0.73077747  0.25094992  0.94464598     0.09600
C2095       C  0.69959555  0.24206025  0.92842477     0.10000
C2096       C  0.67518728  0.20907345  0.92858830    -0.17300
C2097       C  0.68124245  0.18511655  0.94558181    -0.27700
C2098       C  0.71366075  0.19364283  0.95645806     0.18400
C2099       C  0.75380163  0.28499176  0.95736174     0.12300
C2100       C  0.69148941  0.26756399  0.91398399    -0.12000
H2101       H  0.65040763  0.20238248  0.91958861     0.12600
C2102       C  0.72189517  0.16871584  0.97293741    -0.22900
H2103       H  0.76251257  0.23388934  0.96735253     0.08300
C2104       C  0.75232838  0.29609434  0.99855090     0.04600
C2105       C  0.77473536  0.32839086  0.01008009    -0.20100
C2106       C  0.79872073  0.34975062  0.98148366    -0.12400
C2107       C  0.79959553  0.33870434  0.93975419     0.13300
C2108       C  0.77709283  0.30632688  0.92831508    -0.22800
C2109       C  0.72705387  0.27380520  0.03032136    -0.05900
H2110       H  0.77380310  0.33689110  0.04178541     0.14800
C2111       C  0.82339248  0.36104539  0.90667342    -0.16100
H2112       H  0.77759444  0.29756667  0.89662233     0.09200
H2113       H  0.70838898  0.15796500  0.00284385     0.07000
H2114       H  0.74845156  0.17974429  0.97982142     0.08200
H2115       H  0.71516080  0.14914008  0.94891908     0.07300
H2116       H  0.70807199  0.28197007  0.88759558     0.02100
H2117       H  0.69461398  0.28425061  0.94070029     0.02600
H2118       H  0.66584424  0.25638111  0.90246039     0.06100
H2119       H  0.72927080  0.28643354  0.06097446     0.05100
H2120       H  0.73015057  0.25242181  0.03675392    -0.00700
H2121       H  0.70208641  0.26512228  0.01758195     0.00800
H2122       H  0.84873936  0.36835511  0.91625632     0.04500
H2123       H  0.82096009  0.38309621  0.90288789     0.06400
H2124       H  0.81897034  0.34889915  0.87518169     0.07300
loop_ 
_geom_bond_atom_site_label_1 
_geom_bond_atom_site_label_2 
_geom_bond_distance 
_geom_bond_site_symmetry_2 
_ccdc_geom_bond_type 
Fe1          O17   2.035       .  S
Fe1           O7   2.089       .  S
Fe1          O14   2.087       .  S
Fe1           O6   2.029   1_554  S
Fe1          O12   1.919       .  S
Fe2           O5   2.027       .  S
Fe2           O9   2.089       .  S
Fe2          O13   2.039   1_554  S
Fe2          O18   2.102   1_554  S
Fe2          O12   1.935       .  S
Fe3          O21   2.135       .  S
Fe3           O8   2.034       .  S
Fe3          O15   2.089   1_556  S
Fe3           O4   2.108       .  S
Fe3          O12   1.953   1_556  S
O4           C11   1.276       .  A
O5           C19   1.256   1_554  A
O6           C11   1.263       .  A
O7           C10   1.278       .  A
O8           C20   1.268       .  A
O9           C22   1.274       .  A
C10          O15   1.281       .  A
C10        C1937   1.509       .  S
C11        C2097   1.473       .  S
O13          C16   1.263   1_556  A
O14          C16   1.271       .  A
C16        C1969   1.482   1_554  S
O17          C22   1.268       .  A
O18          C20   1.277       .  A
C19          O21   1.280       .  A
C19        C2001   1.493   1_545  S
C20        C2065   1.468       .  S
C22        C2033   1.489       .  S
Fe23         O39   2.084       .  S
Fe23         O29   2.035       .  S
Fe23         O36   2.038       .  S
Fe23         O28   2.088       .  S
Fe23         O34   1.921       .  S
Fe24         O27   2.117       .  S
Fe24         O31   2.034       .  S
Fe24         O35   2.089       .  S
Fe24         O40   2.019       .  S
Fe24         O34   1.931       .  S
Fe25         O43   2.021       .  S
Fe25         O30   2.147       .  S
Fe25         O37   2.106       .  S
Fe25         O26   2.089       .  S
Fe25         O34   1.960       .  S
O26          C33   1.284       .  A
O27          C41   1.283       .  A
O28          C33   1.279       .  A
O29          C32   1.262       .  A
O30          C42   1.277       .  A
O31          C44   1.260       .  A
C32          O37   1.274       .  A
C32        C1914   1.471       .  S
C33        C1818   1.511       .  S
O35          C38   1.275       .  A
O36          C38   1.269       .  A
C38        C2074   1.485       .  S
O39          C44   1.272       .  A
O40          C42   1.251       .  A
C41          O43   1.270       .  A
C41        C2042   1.492       .  S
C42        C1873   1.504   1_545  S
C44        C1841   1.492       .  S
Fe45         O61   2.051       .  S
Fe45         O51   2.088       .  S
Fe45         O58   2.088       .  S
Fe45         O50   2.039   1_554  S
Fe45         O56   1.916       .  S
Fe46         O49   2.015       .  S
Fe46         O53   2.089       .  S
Fe46         O57   2.040   1_554  S
Fe46         O62   2.117   1_554  S
Fe46         O56   1.928       .  S
Fe47         O65   2.157       .  S
Fe47         O52   2.035       .  S
Fe47         O59   2.101   1_556  S
Fe47         O48   2.105       .  S
Fe47         O56   1.968   1_556  S
O48          C55   1.275       .  A
O49          C63   1.249   1_554  A
O50          C55   1.263       .  A
O51          C54   1.279       .  A
O52          C64   1.272       .  A
O53          C66   1.274       .  A
C54          O59   1.286       .  A
C54        C1658   1.517       .  S
C55        C1978   1.471       .  S
O57          C60   1.264   1_556  A
O58          C60   1.273       .  A
C60        C1681   1.478   1_554  S
O61          C66   1.270       .  A
O62          C64   1.282       .  A
C63          O65   1.275       .  A
C63        C1713   1.516       .  S
C64        C1777   1.491       .  S
C66        C1745   1.496       .  S
Fe67         O83   2.075       .  S
Fe67         O73   2.033       .  S
Fe67         O80   2.044       .  S
Fe67         O72   2.081       .  S
Fe67         O78   1.923       .  S
Fe68         O71   2.115       .  S
Fe68         O75   2.040       .  S
Fe68         O79   2.088       .  S
Fe68         O84   2.020       .  S
Fe68         O78   1.932       .  S
Fe69         O87   2.040       .  S
Fe69         O74   2.140       .  S
Fe69         O81   2.094       .  S
Fe69         O70   2.098       .  S
Fe69         O78   1.969       .  S
O70          C77   1.287       .  A
O71          C85   1.282       .  A
O72          C77   1.275       .  A
O73          C76   1.262       .  A
O74          C86   1.274       .  A
O75          C88   1.262       .  A
C76          O81   1.271       .  A
C76        C1617   1.461       .  S
C77        C1553   1.501       .  S
O79          C82   1.276       .  A
O80          C82   1.268       .  A
C82        C1786   1.477       .  S
O83          C88   1.270       .  A
O84          C86   1.252       .  A
C85          O87   1.273       .  A
C85        C1754   1.496       .  S
C86        C1585   1.511       .  S
C88        C1905   1.479       .  S
Fe89        O105   2.075       .  S
Fe89         O95   2.044       .  S
Fe89        O102   2.060       .  S
Fe89         O94   2.075       .  S
Fe89        O100   1.916       .  S
Fe90         O93   2.128       .  S
Fe90         O97   2.033       .  S
Fe90        O101   2.082       .  S
Fe90        O106   2.013       .  S
Fe90        O100   1.925       .  S
Fe91        O109   2.035       .  S
Fe91         O96   2.148       .  S
Fe91        O103   2.092       .  S
Fe91         O92   2.102       .  S
Fe91        O100   1.975       .  S
O92          C99   1.288       .  A
O93         C107   1.285       .  A
O94          C99   1.277       .  A
O95          C98   1.264       .  A
O96         C108   1.272       .  A
O97         C110   1.262       .  A
C98         O103   1.271       .  A
C98        C1850   1.463       .  S
C99        C1425   1.512       .  S
O101        C104   1.275       .  A
O102        C104   1.270       .  A
C104       C1498   1.491       .  S
O105        C110   1.271       .  A
O106        C108   1.245       .  A
C107        O109   1.273       .  A
C107       C1521   1.489       .  S
C108       C1457   1.509       .  S
C110       C1626   1.477       .  S
Fe111       O127   2.052       .  S
Fe111       O117   2.082       .  S
Fe111       O124   2.080       .  S
Fe111       O116   2.039   1_554  S
Fe111       O122   1.923       .  S
Fe112       O115   2.022       .  S
Fe112       O119   2.099       .  S
Fe112       O123   2.042   1_554  S
Fe112       O128   2.117   1_554  S
Fe112       O122   1.934       .  S
Fe113       O131   2.140       .  S
Fe113       O118   2.039       .  S
Fe113       O125   2.103   1_556  S
Fe113       O114   2.097       .  S
Fe113       O122   1.968   1_556  S
O114        C121   1.273       .  A
O115        C129   1.253   1_554  A
O116        C121   1.264       .  A
O117        C120   1.275       .  A
O118        C130   1.272       .  A
O119        C132   1.277       .  A
C120        O125   1.286       .  A
C120       C1361   1.507       .  S
C121       C1690   1.468       .  S
O123        C126   1.262       .  A
O124        C126   1.270   1_554  A
C126       C2106   1.480       .  S
O127        C132   1.271       .  A
O128        C130   1.283       .  A
C129        O131   1.275       .  A
C129       C1393   1.507       .  S
C130       C1489   1.499       .  S
C132       C1530   1.501       .  S
Fe133       O149   2.048       .  S
Fe133       O139   2.087       .  S
Fe133       O146   2.084       .  S
Fe133       O138   2.040       .  S
Fe133       O144   1.913       .  S
Fe134       O137   2.010       .  S
Fe134       O141   2.090       .  S
Fe134       O145   2.036       .  S
Fe134       O150   2.136       .  S
Fe134       O144   1.926       .  S
Fe135       O153   2.156       .  S
Fe135       O140   2.027       .  S
Fe135       O147   2.107       .  S
Fe135       O136   2.095       .  S
Fe135       O144   1.971       .  S
O136        C143   1.272       .  A
O137        C151   1.244       .  A
O138        C143   1.262       .  A
O139        C142   1.276       .  A
O140        C152   1.268       .  A
O141        C154   1.277       .  A
C142        O147   1.290       .  A
C142       C1882   1.519       .  S
C143       C1338   1.466       .  S
O145        C148   1.262       .  A
O146        C148   1.273       .  A
C148       C1210   1.478       .  S
O149        C154   1.268       .  A
O150        C152   1.288       .  A
C151        O153   1.272       .  A
C151       C1233   1.512       .  S
C152       C1306   1.501       .  S
C154       C1265   1.487       .  S
Fe155       O171   2.087       .  S
Fe155       O161   2.036       .  S
Fe155       O168   2.046       .  S
Fe155       O160   2.088       .  S
Fe155       O166   1.922       .  S
Fe156       O159   2.124       .  S
Fe156       O163   2.038       .  S
Fe156       O167   2.100       .  S
Fe156       O172   2.018       .  S
Fe156       O166   1.934       .  S
Fe157       O175   2.034       .  S
Fe157       O162   2.136       .  S
Fe157       O169   2.096       .  S
Fe157       O158   2.095       .  S
Fe157       O166   1.965       .  S
O158        C165   1.284       .  A
O159        C173   1.285       .  A
O160        C165   1.276       .  A
O161        C164   1.264       .  A
O162        C174   1.275       .  A
O163        C176   1.262       .  A
C164        O169   1.273       .  A
C164       C1178   1.469       .  S
C165       C1722   1.504       .  S
O167        C170   1.278       .  A
O168        C170   1.269       .  A
C170       C1297   1.496       .  S
O171        C176   1.273       .  A
O172        C174   1.251       .  A
C173        O175   1.269       .  A
C173       C1274   1.485       .  S
C174       C1137   1.499       .  S
C176       C1114   1.482       .  S
Fe177       O193   2.073       .  S
Fe177       O183   2.039       .  S
Fe177       O190   2.047       .  S
Fe177       O182   2.063       .  S
Fe177       O188   1.917       .  S
Fe178       O181   2.113       .  S
Fe178       O185   2.041       .  S
Fe178       O189   2.096       .  S
Fe178       O194   2.017       .  S
Fe178       O188   1.932       .  S
Fe179       O197   2.044       .  S
Fe179       O184   2.152       .  S
Fe179       O191   2.111       .  S
Fe179       O180   2.110       .  S
Fe179       O188   1.963       .  S
O180        C187   1.287       .  A
O181        C195   1.281       .  A
O182        C187   1.269       .  A
O183        C186   1.266       .  A
O184        C196   1.279       .  A
O185        C198   1.263       .  A
C186        O191   1.276       .  A
C186       C1073   1.486       .  S
C187       C1402   1.513       .  S
O189        C192   1.276       .  A
O190        C192   1.267       .  A
C192       C1009   1.488       .  S
O193        C198   1.270       .  A
O194        C196   1.251       .  A
C195        O197   1.273       .  A
C195       C1041   1.499       .  S
C196        C977   1.499       .  S
C198       C1169   1.474       .  S
Fe199       O215   2.054       .  S
Fe199       O205   2.082       .  S
Fe199       O212   2.091       .  S
Fe199       O204   2.044       .  S
Fe199       O210   1.918       .  S
Fe200       O203   2.019       .  S
Fe200       O207   2.082       .  S
Fe200       O211   2.042       .  S
Fe200       O216   2.124       .  S
Fe200       O210   1.928       .  S
Fe201       O219   2.164       .  S
Fe201       O206   2.041       .  S
Fe201       O213   2.106       .  S
Fe201       O202   2.101       .  S
Fe201       O210   1.972       .  S
O202        C209   1.274       .  A
O203        C217   1.246       .  A
O204        C209   1.267       .  A
O205        C208   1.278       .  A
O206        C218   1.270       .  A
O207        C220   1.273       .  A
C208        O213   1.287       .  A
C208       C1594   1.517       .  S
C209       C1201   1.481       .  S
O211        C214   1.264       .  A
O212        C214   1.274       .  A
C214        C922   1.477       .  S
O215        C220   1.270       .  A
O216        C218   1.283       .  A
C217        O219   1.276       .  A
C217        C954   1.507       .  S
C218       C1018   1.475       .  S
C220       C1050   1.489       .  S
Fe221       O237   2.053       .  S
Fe221       O227   2.085       .  S
Fe221       O234   2.083       .  S
Fe221       O226   2.036       .  S
Fe221       O232   1.923       .  S
Fe222       O225   2.017       .  S
Fe222       O229   2.076       .  S
Fe222       O233   2.034       .  S
Fe222       O238   2.111       .  S
Fe222       O232   1.931       .  S
Fe223       O241   2.149       .  S
Fe223       O228   2.036       .  S
Fe223       O235   2.087       .  S
Fe223       O224   2.108       .  S
Fe223       O232   1.964       .  S
O224        C231   1.275       .  A
O225        C239   1.250       .  A
O226        C231   1.265       .  A
O227        C230   1.278       .  A
O228        C240   1.270       .  A
O229        C242   1.271       .  A
C230        O235   1.283       .  A
C230       C1466   1.502       .  S
C231        C913   1.479       .  S
O233        C236   1.265       .  A
O234        C236   1.272       .  A
C236       C1329   1.483       .  S
O237        C242   1.269       .  A
O238        C240   1.280       .  A
C239        O241   1.276       .  A
C239        C826   1.509       .  S
C240        C890   1.473       .  S
C242        C858   1.478       .  S
Fe243       O259   2.088       .  S
Fe243       O249   2.039       .  S
Fe243       O256   2.042       .  S
Fe243       O248   2.083       .  S
Fe243       O254   1.920       .  S
Fe244       O247   2.119       .  S
Fe244       O251   2.039       .  S
Fe244       O255   2.092       .  S
Fe244       O260   2.016       .  S
Fe244       O254   1.931       .  S
Fe245       O263   2.026       .  S
Fe245       O250   2.147       .  S
Fe245       O257   2.100       .  S
Fe245       O246   2.091       .  S
Fe245       O254   1.963       .  S
O246        C253   1.284       .  A
O247        C261   1.283       .  A
O248        C253   1.278       .  A
O249        C252   1.265       .  A
O250        C262   1.276       .  A
O251        C264   1.264       .  A
C252        O257   1.275       .  A
C252       C1105   1.474       .  S
C253       C2010   1.507       .  S
O255        C258   1.275       .  A
O256        C258   1.268       .  A
C258        C881   1.487       .  S
O259        C264   1.273       .  A
O260        C262   1.248       .  A
C261        O263   1.270       .  A
C261        C849   1.489       .  S
C262        C794   1.505       .  S
C264       C1082   1.477       .  S
Fe265       O281   2.041       .  S
Fe265       O271   2.062       .  S
Fe265       O278   2.065       .  S
Fe265       O270   2.041       .  S
Fe265       O276   1.922       .  S
Fe266       O269   2.030       .  S
Fe266       O273   2.108       .  S
Fe266       O277   2.053       .  S
Fe266       O282   2.117       .  S
Fe266       O276   1.934       .  S
Fe267       O285   2.129       .  S
Fe267       O272   2.042       .  S
Fe267       O279   2.107       .  S
Fe267       O268   2.091       .  S
Fe267       O276   1.959       .  S
O268        C275   1.273       .  A
O269        C283   1.256       .  A
O270        C275   1.266       .  A
O271        C274   1.268       .  A
O272        C284   1.272       .  A
O273        C286   1.281       .  A
C274        O279   1.285       .  A
C274        C986   1.512       .  S
C275        C762   1.464       .  S
O277        C280   1.264       .  A
O278        C280   1.265       .  A
C280        C657   1.472       .  S
O281        C286   1.268       .  A
O282        C284   1.282       .  A
C283        O285   1.278       .  A
C283       C1809   1.492       .  S
C284        C721   1.499       .  S
C286        C698   1.488       .  S
Fe287       O303   2.084       .  S
Fe287       O293   2.042   1_545  S
Fe287       O300   2.051       .  S
Fe287       O292   2.088   1_545  S
Fe287       O298   1.917       .  S
Fe288       O291   2.132       .  S
Fe288       O295   2.041       .  S
Fe288       O299   2.091       .  S
Fe288       O304   2.014       .  S
Fe288       O298   1.929       .  S
Fe289       O307   2.036       .  S
Fe289       O294   2.157       .  S
Fe289       O301   2.118   1_545  S
Fe289       O290   2.090   1_545  S
Fe289       O298   1.971       .  S
O290        C297   1.285       .  A
O291        C305   1.287       .  A
O292        C297   1.278       .  A
O293        C296   1.263       .  A
O294        C306   1.274       .  A
O295        C308   1.265       .  A
C296        O301   1.275       .  A
C296        C625   1.483       .  S
C297        C817   1.503       .  S
O299        C302   1.275       .  A
O300        C302   1.267       .  A
C302        C730   1.483       .  S
O303        C308   1.275       .  A
O304        C306   1.247       .  A
C305        O307   1.271       .  A
C305        C689   1.494       .  S
C306       C1649   1.515       .  S
C308        C593   1.484       .  S
Fe309       O325   2.045       .  S
Fe309       O315   2.085       .  S
Fe309       O322   2.083       .  S
Fe309       O314   2.035       .  S
Fe309       O320   1.922       .  S
Fe310       O313   2.013       .  S
Fe310       O317   2.087       .  S
Fe310       O321   2.036       .  S
Fe310       O326   2.123       .  S
Fe310       O320   1.932       .  S
Fe311       O329   2.150       .  S
Fe311       O316   2.034       .  S
Fe311       O323   2.101       .  S
Fe311       O312   2.094       .  S
Fe311       O320   1.973       .  S
O312        C319   1.274       .  A
O313        C327   1.248       .  A
O314        C319   1.265       .  A
O315        C318   1.275       .  A
O316        C328   1.271       .  A
O317        C330   1.274       .  A
C318        O323   1.286       .  A
C318        C785   1.516   1_655  S
C319        C666   1.472   1_655  S
O321        C324   1.264       .  A
O322        C324   1.272       .  A
C324        C497   1.470       .  S
O325        C330   1.267       .  A
O326        C328   1.282       .  A
C327        O329   1.274       .  A
C327       C1562   1.513       .  S
C328        C561   1.495       .  S
C330        C538   1.473       .  S
Fe331       O347   2.078       .  S
Fe331       O337   2.030       .  S
Fe331       O344   2.048       .  S
Fe331       O336   2.081       .  S
Fe331       O342   1.919       .  S
Fe332       O335   2.121       .  S
Fe332       O339   2.050       .  S
Fe332       O343   2.095       .  S
Fe332       O348   2.017       .  S
Fe332       O342   1.931       .  S
Fe333       O351   2.033       .  S
Fe333       O338   2.157       .  S
Fe333       O345   2.114       .  S
Fe333       O334   2.101       .  S
Fe333       O342   1.973       .  S
O334        C341   1.286       .  A
O335        C349   1.284       .  A
O336        C341   1.275       .  A
O337        C340   1.262       .  A
O338        C350   1.277       .  A
O339        C352   1.266       .  A
C340        O345   1.275       .  A
C340        C465   1.478       .  S
C341       C1242   1.504       .  S
O343        C346   1.277       .  A
O344        C346   1.268       .  A
C346        C570   1.482       .  S
O347        C352   1.270       .  A
O348        C350   1.247       .  A
C349        O351   1.270       .  A
C349        C529   1.477       .  S
C350       C1370   1.516       .  S
C352        C634   1.487       .  S
Fe353       O369   2.038       .  S
Fe353       O359   2.070   1_545  S
Fe353       O366   2.071       .  S
Fe353       O358   2.040       .  S
Fe353       O364   1.922       .  S
Fe354       O357   2.027       .  S
Fe354       O361   2.093       .  S
Fe354       O365   2.047       .  S
Fe354       O370   2.101       .  S
Fe354       O364   1.942       .  S
Fe355       O373   2.127       .  S
Fe355       O360   2.043       .  S
Fe355       O367   2.104   1_545  S
Fe355       O356   2.089   1_545  S
Fe355       O364   1.963       .  S
O356        C363   1.272       .  A
O357        C371   1.256       .  A
O358        C363   1.265   1_545  A
O359        C362   1.271       .  A
O360        C372   1.270       .  A
O361        C374   1.276       .  A
C362        O367   1.285       .  A
C362       C1146   1.514       .  S
C363        C506   1.471       .  S
O365        C368   1.264       .  A
O366        C368   1.268       .  A
C368        C753   1.480       .  S
O369        C374   1.267       .  A
O370        C372   1.278       .  A
C371        O373   1.277       .  A
C371       C1434   1.494       .  S
C372        C433   1.467       .  S
C374        C401   1.475       .  S
Fe375       O391   2.091       .  S
Fe375       O381   2.037       .  S
Fe375       O388   2.043       .  S
Fe375       O380   2.096       .  S
Fe375       O386   1.922       .  S
Fe376       O379   2.113       .  S
Fe376       O383   2.034       .  S
Fe376       O387   2.087       .  S
Fe376       O392   2.022       .  S
Fe376       O386   1.933       .  S
Fe377       O395   2.037       .  S
Fe377       O382   2.150       .  S
Fe377       O389   2.108       .  S
Fe377       O378   2.085       .  S
Fe377       O386   1.963       .  S
O378        C385   1.284       .  A
O379        C393   1.281       .  A
O380        C385   1.279       .  A
O381        C384   1.261       .  A
O382        C394   1.277       .  A
O383        C396   1.264       .  A
C384        O389   1.274       .  A
C384        C602   1.473   1_655  S
C385        C945   1.491   1_655  S
O387        C390   1.274       .  A
O388        C390   1.267       .  A
C390        C442   1.477       .  S
O391        C396   1.274       .  A
O392        C394   1.253       .  A
C393        O395   1.271       .  A
C393        C410   1.470       .  S
C394       C1946   1.512       .  S
C396        C474   1.479       .  S
C397        C398   1.398       .  A
C397        C402   1.401       .  A
C397        H407   1.084       .  S
C398        C403   1.479       .  S
C398        C399   1.414       .  A
C399        C400   1.404       .  A
C399        C404   1.507       .  S
C400        C401   1.402       .  A
C400        H405   1.084       .  S
C401        C402   1.417       .  A
C402        C406   1.510       .  S
C403        C408   1.413       .  A
C403        C412   1.399       .  A
C404        H420   1.109       .  S
C404        H421   1.110       .  S
C404        H422   1.111       .  S
C406        H417   1.111       .  S
C406        H418   1.111       .  S
C406        H419   1.109       .  S
C408        C409   1.407   1_556  A
C408        C413   1.505       .  S
C409        C410   1.404       .  A
C409        H414   1.084       .  S
C410        C411   1.414       .  A
C411        C412   1.397   1_554  A
C411        C415   1.507       .  S
C412        H416   1.085       .  S
C413        H423   1.111       .  S
C413        H424   1.110       .  S
C413        H425   1.110       .  S
C415        H426   1.111       .  S
C415        H427   1.108       .  S
C415        H428   1.109       .  S
C429        C430   1.398       .  A
C429        C434   1.398       .  A
C429        H439   1.085       .  S
C430        C435   1.475       .  S
C430        C431   1.411       .  A
C431        C432   1.405       .  A
C431        C436   1.505       .  S
C432        C433   1.402       .  A
C432        H437   1.082       .  S
C433        C434   1.415       .  A
C434        C438   1.507       .  S
C435        C440   1.408       .  A
C435        C444   1.402       .  A
C436        H452   1.110       .  S
C436        H453   1.110       .  S
C436        H454   1.109       .  S
C438        H449   1.111       .  S
C438        H450   1.110       .  S
C438        H451   1.108       .  S
C440        C441   1.400       .  A
C440        C445   1.507       .  S
C441        C442   1.406       .  A
C441        H446   1.084       .  S
C442        C443   1.415       .  A
C443        C444   1.404       .  A
C443        C447   1.507       .  S
C444        H448   1.084       .  S
C445        H455   1.111       .  S
C445        H456   1.110       .  S
C445        H457   1.110       .  S
C447        H458   1.110       .  S
C447        H459   1.109       .  S
C447        H460   1.111       .  S
C461        C462   1.401       .  A
C461        C466   1.405       .  A
C461        H471   1.084       .  S
C462        C467   1.476       .  S
C462        C463   1.408       .  A
C463        C464   1.399       .  A
C463        C468   1.508       .  S
C464        C465   1.406       .  A
C464        H469   1.085       .  S
C465        C466   1.416       .  A
C466        C470   1.506       .  S
C467        C472   1.405       .  A
C467        C476   1.403       .  A
C468        H484   1.110       .  S
C468        H485   1.110       .  S
C468        H486   1.111       .  S
C470        H481   1.111       .  S
C470        H482   1.107       .  S
C470        H483   1.110       .  S
C472        C473   1.402   1_565  A
C472        C477   1.505       .  S
C473        C474   1.409       .  A
C473        H478   1.084       .  S
C474        C475   1.414   1_545  A
C475        C476   1.403       .  A
C475        C479   1.507       .  S
C476        H480   1.084       .  S
C477        H487   1.111       .  S
C477        H488   1.110       .  S
C477        H489   1.110       .  S
C479        H490   1.111       .  S
C479        H491   1.110   1_565  S
C479        H492   1.109   1_565  S
C493        C494   1.402       .  A
C493        C498   1.401       .  A
C493        H503   1.085       .  S
C494        C499   1.471       .  S
C494        C495   1.407       .  A
C495        C496   1.399       .  A
C495        C500   1.506       .  S
C496        C497   1.405       .  A
C496        H501   1.084       .  S
C497        C498   1.412       .  A
C498        C502   1.506       .  S
C499        C504   1.408       .  A
C499        C508   1.399       .  A
C500        H516   1.110       .  S
C500        H517   1.110       .  S
C500        H518   1.111       .  S
C502        H513   1.111       .  S
C502        H514   1.109       .  S
C502        H515   1.110       .  S
C504        C505   1.401       .  A
C504        C509   1.506       .  S
C505        C506   1.406       .  A
C505        H510   1.084       .  S
C506        C507   1.414       .  A
C507        C508   1.396       .  A
C507        C511   1.506       .  S
C508        H512   1.085       .  S
C509        H519   1.111       .  S
C509        H520   1.110       .  S
C509        H521   1.110       .  S
C511        H522   1.110       .  S
C511        H523   1.105       .  S
C511        H524   1.110       .  S
C525        C526   1.397       .  A
C525        C530   1.399   1_556  A
C525        H535   1.085       .  S
C526        C531   1.479       .  S
C526        C527   1.413       .  A
C527        C528   1.406   1_556  A
C527        C532   1.506       .  S
C528        C529   1.403       .  A
C528        H533   1.084       .  S
C529        C530   1.419       .  A
C530        C534   1.509       .  S
C531        C536   1.411       .  A
C531        C540   1.401       .  A
C532        H548   1.110       .  S
C532        H549   1.110       .  S
C532        H550   1.111   1_556  S
C534        H545   1.107       .  S
C534        H546   1.111   1_554  S
C534        H547   1.108       .  S
C536        C537   1.405       .  A
C536        C541   1.506       .  S
C537        C538   1.403       .  A
C537        H542   1.084       .  S
C538        C539   1.414       .  A
C539        C540   1.401       .  A
C539        C543   1.507       .  S
C540        H544   1.084       .  S
C541        H551   1.111       .  S
C541        H552   1.110       .  S
C541        H553   1.110       .  S
C543        H554   1.111       .  S
C543        H555   1.109       .  S
C543        H556   1.109       .  S
C557        C558   1.404       .  A
C557        C562   1.412       .  A
C557        H567   1.084       .  S
C558        C563   1.483       .  S
C558        C559   1.407       .  A
C559        C560   1.398       .  A
C559        C564   1.508       .  S
C560        C561   1.410       .  A
C560        H565   1.084       .  S
C561        C562   1.420       .  A
C562        C566   1.505       .  S
C563        C568   1.410       .  A
C563        C572   1.401       .  A
C564        H580   1.110       .  S
C564        H581   1.110       .  S
C564        H582   1.111       .  S
C566        H577   1.109       .  S
C566        H578   1.111       .  S
C566        H579   1.109       .  S
C568        C569   1.407       .  A
C568        C573   1.505       .  S
C569        C570   1.406       .  A
C569        H574   1.084       .  S
C570        C571   1.417       .  A
C571        C572   1.404       .  A
C571        C575   1.508       .  S
C572        H576   1.084       .  S
C573        H583   1.111       .  S
C573        H584   1.110       .  S
C573        H585   1.110       .  S
C575        H586   1.109       .  S
C575        H587   1.110       .  S
C575        H588   1.111       .  S
C589        C590   1.398       .  A
C589        C594   1.406       .  A
C589        H599   1.084       .  S
C590        C595   1.477       .  S
C590        C591   1.411       .  A
C591        C592   1.400       .  A
C591        C596   1.508       .  S
C592        C593   1.404       .  A
C592        H597   1.084       .  S
C593        C594   1.423       .  A
C594        C598   1.509       .  S
C595        C600   1.410       .  A
C595        C604   1.399       .  A
C596        H612   1.110       .  S
C596        H613   1.110       .  S
C596        H614   1.111       .  S
C598        H609   1.110       .  S
C598        H610   1.111       .  S
C598        H611   1.111       .  S
C600        C601   1.404       .  A
C600        C605   1.506       .  S
C601        C602   1.405       .  A
C601        H606   1.084       .  S
C602        C603   1.414       .  A
C603        C604   1.401       .  A
C603        C607   1.507   1_455  S
C604        H608   1.084       .  S
C605        H615   1.111       .  S
C605        H616   1.110       .  S
C605        H617   1.110       .  S
C607        H618   1.108       .  S
C607        H619   1.108       .  S
C607        H620   1.111       .  S
C621        C622   1.400       .  A
C621        C626   1.405       .  A
C621        H631   1.084       .  S
C622        C627   1.480       .  S
C622        C623   1.409       .  A
C623        C624   1.403       .  A
C623        C628   1.506       .  S
C624        C625   1.406       .  A
C624        H629   1.084       .  S
C625        C626   1.418       .  A
C626        C630   1.504       .  S
C627        C632   1.407   1_455  A
C627        C636   1.401       .  A
C628        H644   1.110       .  S
C628        H645   1.110       .  S
C628        H646   1.111       .  S
C630        H641   1.111       .  S
C630        H642   1.104       .  S
C630        H643   1.110       .  S
C632        C633   1.405       .  A
C632        C637   1.505   1_655  S
C633        C634   1.411       .  A
C633        H638   1.084       .  S
C634        C635   1.418       .  A
C635        C636   1.402   1_655  A
C635        C639   1.508       .  S
C636        H640   1.084       .  S
C637        H647   1.111   1_455  S
C637        H648   1.110       .  S
C637        H649   1.110       .  S
C639        H650   1.110       .  S
C639        H651   1.109       .  S
C639        H652   1.111       .  S
C653        C654   1.401       .  A
C653        C658   1.399       .  A
C653        H663   1.085       .  S
C654        C659   1.472       .  S
C654        C655   1.407       .  A
C655        C656   1.403   1_565  A
C655        C660   1.505       .  S
C656        C657   1.406       .  A
C656        H661   1.084       .  S
C657        C658   1.414   1_545  A
C658        C662   1.509   1_565  S
C659        C664   1.409       .  A
C659        C668   1.400       .  A
C660        H676   1.110       .  S
C660        H677   1.110       .  S
C660        H678   1.111       .  S
C662        H673   1.111   1_545  S
C662        H674   1.109       .  S
C662        H675   1.110       .  S
C664        C665   1.400       .  A
C664        C669   1.507       .  S
C665        C666   1.404       .  A
C665        H670   1.084       .  S
C666        C667   1.416       .  A
C667        C668   1.399       .  A
C667        C671   1.508   1_455  S
C668        H672   1.085       .  S
C669        H679   1.111       .  S
C669        H680   1.110       .  S
C669        H681   1.110       .  S
C671        H682   1.111       .  S
C671        H683   1.109       .  S
C671        H684   1.110       .  S
C685        C686   1.396       .  A
C685        C690   1.401   1_556  A
C685        H695   1.085       .  S
C686        C691   1.483       .  S
C686        C687   1.411       .  A
C687        C688   1.408   1_556  A
C687        C692   1.505       .  S
C688        C689   1.408       .  A
C688        H693   1.084       .  S
C689        C690   1.427       .  A
C690        C694   1.511       .  S
C691        C696   1.410       .  A
C691        C700   1.399       .  A
C692        H708   1.110       .  S
C692        H709   1.111       .  S
C692        H710   1.111   1_556  S
C694        H705   1.110       .  S
C694        H706   1.111   1_554  S
C694        H707   1.109       .  S
C696        C697   1.407       .  A
C696        C701   1.506       .  S
C697        C698   1.408       .  A
C697        H702   1.084       .  S
C698        C699   1.421       .  A
C699        C700   1.403       .  A
C699        C703   1.509       .  S
C700        H704   1.085       .  S
C701        H711   1.111       .  S
C701        H712   1.110       .  S
C701        H713   1.110       .  S
C703        H714   1.111       .  S
C703        H715   1.111       .  S
C703        H716   1.109       .  S
C717        C718   1.403       .  A
C717        C722   1.411       .  A
C717        H727   1.084       .  S
C718        C723   1.485       .  S
C718        C719   1.407       .  A
C719        C720   1.400       .  A
C719        C724   1.508       .  S
C720        C721   1.412       .  A
C720        H725   1.083       .  S
C721        C722   1.421       .  A
C722        C726   1.506       .  S
C723        C728   1.411       .  A
C723        C732   1.401       .  A
C724        H740   1.110       .  S
C724        H741   1.110       .  S
C724        H742   1.111       .  S
C726        H737   1.111       .  S
C726        H738   1.110       .  S
C726        H739   1.110       .  S
C728        C729   1.408       .  A
C728        C733   1.505       .  S
C729        C730   1.406       .  A
C729        H734   1.084       .  S
C730        C731   1.417       .  A
C731        C732   1.403       .  A
C731        C735   1.508       .  S
C732        H736   1.084       .  S
C733        H743   1.111       .  S
C733        H744   1.110       .  S
C733        H745   1.110       .  S
C735        H746   1.111       .  S
C735        H747   1.109       .  S
C735        H748   1.111       .  S
C749        C750   1.400       .  A
C749        C754   1.399   1_455  A
C749        H759   1.085       .  S
C750        C755   1.473       .  S
C750        C751   1.406       .  A
C751        C752   1.403   1_455  A
C751        C756   1.506       .  S
C752        C753   1.409       .  A
C752        H757   1.084       .  S
C753        C754   1.416       .  A
C754        C758   1.508       .  S
C755        C760   1.410       .  A
C755        C764   1.401       .  A
C756        H772   1.110       .  S
C756        H773   1.110       .  S
C756        H774   1.111   1_455  S
C758        H769   1.109       .  S
C758        H770   1.111       .  S
C758        H771   1.111       .  S
C760        C761   1.399       .  A
C760        C765   1.507       .  S
C761        C762   1.402       .  A
C761        H766   1.085       .  S
C762        C763   1.412       .  A
C763        C764   1.400       .  A
C763        C767   1.507       .  S
C764        H768   1.085       .  S
C765        H775   1.111       .  S
C765        H776   1.110       .  S
C765        H777   1.110       .  S
C767        H778   1.110       .  S
C767        H779   1.110       .  S
C767        H780   1.110       .  S
C781        C782   1.395       .  A
C781        C786   1.408       .  A
C781        H791   1.085       .  S
C782        C787   1.500       .  S
C782        C783   1.415       .  A
C783        C784   1.417       .  A
C783        C788   1.505       .  S
C784        C785   1.411       .  A
C784        H789   1.083       .  S
C785        C786   1.435       .  A
C786        C790   1.512       .  S
C787        C792   1.414       .  A
C787        C796   1.400       .  A
C788        H804   1.110       .  S
C788        H805   1.109       .  S
C788        H806   1.111       .  S
C790        H801   1.111       .  S
C790        H802   1.110       .  S
C790        H803   1.109       .  S
C792        C793   1.415       .  A
C792        C797   1.505       .  S
C793        C794   1.411       .  A
C793        H798   1.083       .  S
C794        C795   1.425       .  A
C795        C796   1.409       .  A
C795        C799   1.510       .  S
C796        H800   1.084       .  S
C797        H807   1.111       .  S
C797        H808   1.110       .  S
C797        H809   1.109       .  S
C799        H810   1.111       .  S
C799        H811   1.110       .  S
C799        H812   1.109       .  S
C813        C814   1.399       .  A
C813        C818   1.407       .  A
C813        H823   1.084       .  S
C814        C819   1.499       .  S
C814        C815   1.414       .  A
C815        C816   1.414       .  A
C815        C820   1.505       .  S
C816        C817   1.409       .  A
C816        H821   1.084       .  S
C817        C818   1.426       .  A
C818        C822   1.510       .  S
C819        C824   1.409       .  A
C819        C828   1.408       .  A
C820        H836   1.108       .  S
C820        H837   1.110       .  S
C820        H838   1.111       .  S
C822        H833   1.111       .  S
C822        H834   1.109       .  S
C822        H835   1.110       .  S
C824        C825   1.404       .  A
C824        C829   1.509       .  S
C825        C826   1.415       .  A
C825        H830   1.083       .  S
C826        C827   1.421       .  A
C827        C828   1.417       .  A
C827        C831   1.506       .  S
C828        H832   1.084       .  S
C829        H839   1.111       .  S
C829        H840   1.109       .  S
C829        H841   1.111       .  S
C831        H842   1.111       .  S
C831        H843   1.110       .  S
C831        H844   1.109       .  S
C845        C846   1.402       .  A
C845        C850   1.407       .  A
C845        H855   1.084       .  S
C846        C851   1.475       .  S
C846        C847   1.405       .  A
C847        C848   1.396       .  A
C847        C852   1.508       .  S
C848        C849   1.411       .  A
C848        H853   1.084       .  S
C849        C850   1.419       .  A
C850        C854   1.506       .  S
C851        C856   1.410       .  A
C851        C860   1.399       .  A
C852        H868   1.110       .  S
C852        H869   1.110       .  S
C852        H870   1.111       .  S
C854        H865   1.109       .  S
C854        H866   1.111       .  S
C854        H867   1.110       .  S
C856        C857   1.401       .  A
C856        C861   1.507       .  S
C857        C858   1.404       .  A
C857        H862   1.084       .  S
C858        C859   1.418       .  A
C859        C860   1.404       .  A
C859        C863   1.508       .  S
C860        H864   1.084       .  S
C861        H871   1.111       .  S
C861        H872   1.110       .  S
C861        H873   1.110       .  S
C863        H874   1.111       .  S
C863        H875   1.110       .  S
C863        H876   1.109       .  S
C877        C878   1.402       .  A
C877        C882   1.406       .  A
C877        H887   1.084       .  S
C878        C883   1.477       .  S
C878        C879   1.407       .  A
C879        C880   1.400       .  A
C879        C884   1.508       .  S
C880        C881   1.410   1_554  A
C880        H885   1.084       .  S
C881        C882   1.417   1_556  A
C882        C886   1.507   1_554  S
C883        C888   1.411       .  A
C883        C892   1.399       .  A
C884        H900   1.110       .  S
C884        H901   1.110       .  S
C884        H902   1.111       .  S
C886        H897   1.110       .  S
C886        H898   1.111   1_556  S
C886        H899   1.111       .  S
C888        C889   1.407       .  A
C888        C893   1.505       .  S
C889        C890   1.405       .  A
C889        H894   1.084       .  S
C890        C891   1.415       .  A
C891        C892   1.399       .  A
C891        C895   1.510       .  S
C892        H896   1.084       .  S
C893        H903   1.109       .  S
C893        H904   1.110       .  S
C893        H905   1.110       .  S
C895        H906   1.109       .  S
C895        H907   1.111       .  S
C895        H908   1.111       .  S
C909        C910   1.402       .  A
C909        C914   1.406       .  A
C909        H919   1.084       .  S
C910        C915   1.481       .  S
C910        C911   1.410       .  A
C911        C912   1.400       .  A
C911        C916   1.507       .  S
C912        C913   1.405       .  A
C912        H917   1.085       .  S
C913        C914   1.416       .  A
C914        C918   1.506       .  S
C915        C920   1.414       .  A
C915        C924   1.400       .  A
C916        H932   1.110       .  S
C916        H933   1.110       .  S
C916        H934   1.111       .  S
C918        H929   1.108       .  S
C918        H930   1.111       .  S
C918        H931   1.110       .  S
C920        C921   1.402       .  A
C920        C925   1.508       .  S
C921        C922   1.401       .  A
C921        H926   1.085       .  S
C922        C923   1.417       .  A
C923        C924   1.406       .  A
C923        C927   1.508       .  S
C924        H928   1.084       .  S
C925        H935   1.111       .  S
C925        H936   1.110       .  S
C925        H937   1.110       .  S
C927        H938   1.111       .  S
C927        H939   1.110       .  S
C927        H940   1.110       .  S
C941        C942   1.406       .  A
C941        C946   1.412       .  A
C941        H951   1.084       .  S
C942        C947   1.501       .  S
C942        C943   1.414       .  A
C943        C944   1.411       .  A
C943        C948   1.504       .  S
C944        C945   1.406       .  A
C944        H949   1.084       .  S
C945        C946   1.416       .  A
C946        C950   1.507       .  S
C947        C952   1.407       .  A
C947        C956   1.412       .  A
C948        H964   1.110       .  S
C948        H965   1.110       .  S
C948        H966   1.111       .  S
C950        H961   1.110   1_455  S
C950        H962   1.111       .  S
C950        H963   1.109   1_455  S
C952        C953   1.401       .  A
C952        C957   1.508       .  S
C953        C954   1.414       .  A
C953        H958   1.083       .  S
C954        C955   1.418       .  A
C955        C956   1.421       .  A
C955        C959   1.504       .  S
C956        H960   1.084       .  S
C957        H967   1.111       .  S
C957        H968   1.109       .  S
C957        H969   1.110       .  S
C959        H970   1.111       .  S
C959        H971   1.107       .  S
C959        H972   1.110       .  S
C973        C974   1.403       .  A
C973        C978   1.406       .  A
C973        H983   1.085       .  S
C974        C979   1.505       .  S
C974        C975   1.418       .  A
C975        C976   1.417       .  A
C975        C980   1.507       .  S
C976        C977   1.410       .  A
C976        H981   1.084       .  S
C977        C978   1.420       .  A
C978        C982   1.507       .  S
C979        C984   1.421       .  A
C979        C988   1.397       .  A
C980        H996   1.110       .  S
C980        H997   1.107       .  S
C980        H998   1.111       .  S
C982        H993   1.110       .  S
C982        H994   1.111       .  S
C982        H995   1.109       .  S
C984        C985   1.416       .  A
C984        C989   1.505       .  S
C985        C986   1.409       .  A
C985        H990   1.084       .  S
C986        C987   1.433       .  A
C987        C988   1.405       .  A
C987        C991   1.512       .  S
C988        H992   1.085       .  S
C989        H999   1.110       .  S
C989       H1000   1.107       .  S
C989       H1001   1.110       .  S
C991       H1002   1.111       .  S
C991       H1003   1.111       .  S
C991       H1004   1.110       .  S
C1005      C1006   1.397       .  A
C1005      C1010   1.403   1_554  A
C1005      H1015   1.084       .  S
C1006      C1011   1.482       .  S
C1006      C1007   1.411       .  A
C1007      C1008   1.406   1_554  A
C1007      C1012   1.506       .  S
C1008      C1009   1.406       .  A
C1008      H1013   1.084       .  S
C1009      C1010   1.422       .  A
C1010      C1014   1.508       .  S
C1011      C1016   1.411       .  A
C1011      C1020   1.403       .  A
C1012      H1028   1.110       .  S
C1012      H1029   1.110       .  S
C1012      H1030   1.111       .  S
C1014      H1025   1.106       .  S
C1014      H1026   1.111   1_556  S
C1014      H1027   1.111       .  S
C1016      C1017   1.401       .  A
C1016      C1021   1.507       .  S
C1017      C1018   1.402       .  A
C1017      H1022   1.084       .  S
C1018      C1019   1.412       .  A
C1019      C1020   1.408       .  A
C1019      C1023   1.503       .  S
C1020      H1024   1.084       .  S
C1021      H1031   1.111       .  S
C1021      H1032   1.110       .  S
C1021      H1033   1.110       .  S
C1023      H1034   1.110       .  S
C1023      H1035   1.108       .  S
C1023      H1036   1.110       .  S
C1037      C1038   1.400       .  A
C1037      C1042   1.409       .  A
C1037      H1047   1.084       .  S
C1038      C1043   1.480       .  S
C1038      C1039   1.406       .  A
C1039      C1040   1.399       .  A
C1039      C1044   1.508       .  S
C1040      C1041   1.412       .  A
C1040      H1045   1.083       .  S
C1041      C1042   1.424       .  A
C1042      C1046   1.506       .  S
C1043      C1048   1.408       .  A
C1043      C1052   1.400       .  A
C1044      H1060   1.110       .  S
C1044      H1061   1.110       .  S
C1044      H1062   1.111       .  S
C1046      H1057   1.106       .  S
C1046      H1058   1.111       .  S
C1046      H1059   1.106       .  S
C1048      C1049   1.400       .  A
C1048      C1053   1.508       .  S
C1049      C1050   1.407       .  A
C1049      H1054   1.084       .  S
C1050      C1051   1.422       .  A
C1051      C1052   1.407       .  A
C1051      C1055   1.508       .  S
C1052      H1056   1.084       .  S
C1053      H1063   1.111       .  S
C1053      H1064   1.110       .  S
C1053      H1065   1.110       .  S
C1055      H1066   1.111       .  S
C1055      H1067   1.110       .  S
C1055      H1068   1.109       .  S
C1069      C1070   1.400       .  A
C1069      C1074   1.407       .  A
C1069      H1079   1.084       .  S
C1070      C1075   1.477       .  S
C1070      C1071   1.409       .  A
C1071      C1072   1.399       .  A
C1071      C1076   1.509       .  S
C1072      C1073   1.407       .  A
C1072      H1077   1.084       .  S
C1073      C1074   1.420       .  A
C1074      C1078   1.506       .  S
C1075      C1080   1.407       .  A
C1075      C1084   1.403       .  A
C1076      H1092   1.110       .  S
C1076      H1093   1.109       .  S
C1076      H1094   1.111       .  S
C1078      H1089   1.111       .  S
C1078      H1090   1.107       .  S
C1078      H1091   1.110       .  S
C1080      C1081   1.403       .  A
C1080      C1085   1.506       .  S
C1081      C1082   1.408       .  A
C1081      H1086   1.084       .  S
C1082      C1083   1.413       .  A
C1083      C1084   1.402       .  A
C1083      C1087   1.507       .  S
C1084      H1088   1.085       .  S
C1085      H1095   1.111       .  S
C1085      H1096   1.110       .  S
C1085      H1097   1.109       .  S
C1087      H1098   1.111       .  S
C1087      H1099   1.111       .  S
C1087      H1100   1.109       .  S
C1101      C1102   1.399       .  A
C1101      C1106   1.398       .  A
C1101      H1111   1.085       .  S
C1102      C1107   1.475       .  S
C1102      C1103   1.408       .  A
C1103      C1104   1.403       .  A
C1103      C1108   1.505       .  S
C1104      C1105   1.406       .  A
C1104      H1109   1.084       .  S
C1105      C1106   1.415       .  A
C1106      C1110   1.507       .  S
C1107      C1112   1.411       .  A
C1107      C1116   1.397       .  A
C1108      H1124   1.110       .  S
C1108      H1125   1.110       .  S
C1108      H1126   1.110       .  S
C1110      H1121   1.111       .  S
C1110      H1122   1.111       .  S
C1110      H1123   1.109       .  S
C1112      C1113   1.401       .  A
C1112      C1117   1.508       .  S
C1113      C1114   1.404       .  A
C1113      H1118   1.084       .  S
C1114      C1115   1.422       .  A
C1115      C1116   1.404       .  A
C1115      C1119   1.508       .  S
C1116      H1120   1.084       .  S
C1117      H1127   1.111       .  S
C1117      H1128   1.110       .  S
C1117      H1129   1.110       .  S
C1119      H1130   1.111       .  S
C1119      H1131   1.111       .  S
C1119      H1132   1.110       .  S
C1133      C1134   1.402       .  A
C1133      C1138   1.406       .  A
C1133      H1143   1.085       .  S
C1134      C1139   1.497       .  S
C1134      C1135   1.415       .  A
C1135      C1136   1.414       .  A
C1135      C1140   1.506       .  S
C1136      C1137   1.410       .  A
C1136      H1141   1.082       .  S
C1137      C1138   1.421       .  A
C1138      C1142   1.507       .  S
C1139      C1144   1.416       .  A
C1139      C1148   1.393       .  A
C1140      H1156   1.110       .  S
C1140      H1157   1.108       .  S
C1140      H1158   1.111       .  S
C1142      H1153   1.110       .  S
C1142      H1154   1.111       .  S
C1142      H1155   1.108       .  S
C1144      C1145   1.418       .  A
C1144      C1149   1.505       .  S
C1145      C1146   1.411       .  A
C1145      H1150   1.083       .  S
C1146      C1147   1.436       .  A
C1147      C1148   1.404       .  A
C1147      C1151   1.513       .  S
C1148      H1152   1.085       .  S
C1149      H1159   1.111       .  S
C1149      H1160   1.110       .  S
C1149      H1161   1.108       .  S
C1151      H1162   1.111       .  S
C1151      H1163   1.110       .  S
C1151      H1164   1.108       .  S
C1165      C1166   1.397       .  A
C1165      C1170   1.403       .  A
C1165      H1175   1.084       .  S
C1166      C1171   1.471       .  S
C1166      C1167   1.412       .  A
C1167      C1168   1.397       .  A
C1167      C1172   1.509       .  S
C1168      C1169   1.401       .  A
C1168      H1173   1.084       .  S
C1169      C1170   1.419       .  A
C1170      C1174   1.507       .  S
C1171      C1176   1.410       .  A
C1171      C1180   1.398       .  A
C1172      H1188   1.110       .  S
C1172      H1189   1.110       .  S
C1172      H1190   1.111       .  S
C1174      H1185   1.106       .  S
C1174      H1186   1.111       .  S
C1174      H1187   1.111       .  S
C1176      C1177   1.401       .  A
C1176      C1181   1.507       .  S
C1177      C1178   1.403       .  A
C1177      H1182   1.084       .  S
C1178      C1179   1.415       .  A
C1179      C1180   1.398       .  A
C1179      C1183   1.507       .  S
C1180      H1184   1.085       .  S
C1181      H1191   1.111       .  S
C1181      H1192   1.110       .  S
C1181      H1193   1.110       .  S
C1183      H1194   1.110       .  S
C1183      H1195   1.110       .  S
C1183      H1196   1.110       .  S
C1197      C1198   1.399       .  A
C1197      C1202   1.404       .  A
C1197      H1207   1.084       .  S
C1198      C1203   1.475       .  S
C1198      C1199   1.408       .  A
C1199      C1200   1.399       .  A
C1199      C1204   1.507       .  S
C1200      C1201   1.405       .  A
C1200      H1205   1.084       .  S
C1201      C1202   1.419       .  A
C1202      C1206   1.506       .  S
C1203      C1208   1.412       .  A
C1203      C1212   1.398       .  A
C1204      H1220   1.110       .  S
C1204      H1221   1.110       .  S
C1204      H1222   1.111       .  S
C1206      H1217   1.107       .  S
C1206      H1218   1.111       .  S
C1206      H1219   1.110       .  S
C1208      C1209   1.399       .  A
C1208      C1213   1.509       .  S
C1209      C1210   1.401       .  A
C1209      H1214   1.084       .  S
C1210      C1211   1.422       .  A
C1211      C1212   1.405       .  A
C1211      C1215   1.509       .  S
C1212      H1216   1.084       .  S
C1213      H1223   1.111       .  S
C1213      H1224   1.110       .  S
C1213      H1225   1.110       .  S
C1215      H1226   1.111       .  S
C1215      H1227   1.110       .  S
C1215      H1228   1.111       .  S
C1229      C1230   1.410       .  A
C1229      C1234   1.419       .  A
C1229      H1239   1.084       .  S
C1230      C1235   1.506       .  S
C1230      C1231   1.412       .  A
C1231      C1232   1.405       .  A
C1231      C1236   1.510       .  S
C1232      C1233   1.414       .  A
C1232      H1237   1.084       .  S
C1233      C1234   1.421       .  A
C1234      C1238   1.505       .  S
C1235      C1240   1.418       .  A
C1235      C1244   1.402       .  A
C1236      H1252   1.108       .  S
C1236      H1253   1.110       .  S
C1236      H1254   1.111       .  S
C1238      H1249   1.108       .  S
C1238      H1250   1.111       .  S
C1238      H1251   1.110       .  S
C1240      C1241   1.418       .  A
C1240      C1245   1.506       .  S
C1241      C1242   1.409       .  A
C1241      H1246   1.084       .  S
C1242      C1243   1.424       .  A
C1243      C1244   1.407       .  A
C1243      C1247   1.511       .  S
C1244      H1248   1.084       .  S
C1245      H1255   1.111       .  S
C1245      H1256   1.109       .  S
C1245      H1257   1.111       .  S
C1247      H1258   1.108       .  S
C1247      H1259   1.111       .  S
C1247      H1260   1.111       .  S
C1261      C1262   1.400       .  A
C1261      C1266   1.403       .  A
C1261      H1271   1.084       .  S
C1262      C1267   1.484       .  S
C1262      C1263   1.411       .  A
C1263      C1264   1.405       .  A
C1263      C1268   1.507       .  S
C1264      C1265   1.407       .  A
C1264      H1269   1.084       .  S
C1265      C1266   1.420       .  A
C1266      C1270   1.509       .  S
C1267      C1272   1.413       .  A
C1267      C1276   1.398       .  A
C1268      H1284   1.109       .  S
C1268      H1285   1.110       .  S
C1268      H1286   1.111       .  S
C1270      H1281   1.111       .  S
C1270      H1282   1.110       .  S
C1270      H1283   1.110       .  S
C1272      C1273   1.407       .  A
C1272      C1277   1.506       .  S
C1273      C1274   1.405       .  A
C1273      H1278   1.082       .  S
C1274      C1275   1.422       .  A
C1275      C1276   1.400       .  A
C1275      C1279   1.510       .  S
C1276      H1280   1.084       .  S
C1277      H1287   1.111       .  S
C1277      H1288   1.109       .  S
C1277      H1289   1.110       .  S
C1279      H1290   1.111       .  S
C1279      H1291   1.109       .  S
C1279      H1292   1.110       .  S
C1293      C1294   1.401       .  A
C1293      C1298   1.408   1_554  A
C1293      H1303   1.084       .  S
C1294      C1299   1.483       .  S
C1294      C1295   1.409       .  A
C1295      C1296   1.403       .  A
C1295      C1300   1.508       .  S
C1296      C1297   1.411   1_554  A
C1296      H1301   1.084   1_554  S
C1297      C1298   1.421       .  A
C1298      C1302   1.506       .  S
C1299      C1304   1.410       .  A
C1299      C1308   1.393       .  A
C1300      H1316   1.110       .  S
C1300      H1317   1.109       .  S
C1300      H1318   1.111       .  S
C1302      H1313   1.111       .  S
C1302      H1314   1.110       .  S
C1302      H1315   1.110       .  S
C1304      C1305   1.411       .  A
C1304      C1309   1.505       .  S
C1305      C1306   1.411       .  A
C1305      H1310   1.083       .  S
C1306      C1307   1.431       .  A
C1307      C1308   1.399       .  A
C1307      C1311   1.512       .  S
C1308      H1312   1.085       .  S
C1309      H1319   1.111       .  S
C1309      H1320   1.110       .  S
C1309      H1321   1.109       .  S
C1311      H1322   1.110       .  S
C1311      H1323   1.110       .  S
C1311      H1324   1.111       .  S
C1325      C1326   1.400       .  A
C1325      C1330   1.401       .  A
C1325      H1335   1.085       .  S
C1326      C1331   1.472       .  S
C1326      C1327   1.403       .  A
C1327      C1328   1.400       .  A
C1327      C1332   1.506       .  S
C1328      C1329   1.411       .  A
C1328      H1333   1.084       .  S
C1329      C1330   1.418       .  A
C1330      C1334   1.508       .  S
C1331      C1336   1.409       .  A
C1331      C1340   1.401       .  A
C1332      H1348   1.110       .  S
C1332      H1349   1.110       .  S
C1332      H1350   1.111       .  S
C1334      H1345   1.110       .  S
C1334      H1346   1.111       .  S
C1334      H1347   1.110       .  S
C1336      C1337   1.399       .  A
C1336      C1341   1.507       .  S
C1337      C1338   1.403       .  A
C1337      H1342   1.085       .  S
C1338      C1339   1.413       .  A
C1339      C1340   1.402       .  A
C1339      C1343   1.508       .  S
C1340      H1344   1.084       .  S
C1341      H1351   1.111       .  S
C1341      H1352   1.110       .  S
C1341      H1353   1.110       .  S
C1343      H1354   1.109       .  S
C1343      H1355   1.110       .  S
C1343      H1356   1.111       .  S
C1357      C1358   1.400       .  A
C1357      C1362   1.408       .  A
C1357      H1367   1.084       .  S
C1358      C1363   1.505       .  S
C1358      C1359   1.418       .  A
C1359      C1360   1.418       .  A
C1359      C1364   1.507       .  S
C1360      C1361   1.410       .  A
C1360      H1365   1.083       .  S
C1361      C1362   1.426       .  A
C1362      C1366   1.510       .  S
C1363      C1368   1.417       .  A
C1363      C1372   1.399       .  A
C1364      H1380   1.110       .  S
C1364      H1381   1.107       .  S
C1364      H1382   1.111       .  S
C1366      H1377   1.111       .  S
C1366      H1378   1.110       .  S
C1366      H1379   1.108       .  S
C1368      C1369   1.418       .  A
C1368      C1373   1.506       .  S
C1369      C1370   1.410       .  A
C1369      H1374   1.081       .  S
C1370      C1371   1.431       .  A
C1371      C1372   1.409       .  A
C1371      C1375   1.511       .  S
C1372      H1376   1.085       .  S
C1373      H1383   1.111       .  S
C1373      H1384   1.110       .  S
C1373      H1385   1.107       .  S
C1375      H1386   1.111       .  S
C1375      H1387   1.111       .  S
C1375      H1388   1.109       .  S
C1389      C1390   1.405       .  A
C1389      C1394   1.416   1_455  A
C1389      H1399   1.084       .  S
C1390      C1395   1.497       .  S
C1390      C1391   1.409       .  A
C1391      C1392   1.405   1_455  A
C1391      C1396   1.507   1_556  S
C1392      C1393   1.413       .  A
C1392      H1397   1.084   1_556  S
C1393      C1394   1.423       .  A
C1394      C1398   1.506       .  S
C1395      C1400   1.414       .  A
C1395      C1404   1.393       .  A
C1396      H1412   1.110       .  S
C1396      H1413   1.110   1_554  S
C1396      H1414   1.111       .  S
C1398      H1409   1.108       .  S
C1398      H1410   1.111       .  S
C1398      H1411   1.110       .  S
C1400      C1401   1.416       .  A
C1400      C1405   1.503   1_455  S
C1401      C1402   1.410       .  A
C1401      H1406   1.083       .  S
C1402      C1403   1.437       .  A
C1403      C1404   1.405       .  A
C1403      C1407   1.512       .  S
C1404      H1408   1.085       .  S
C1405      H1415   1.111       .  S
C1405      H1416   1.109       .  S
C1405      H1417   1.110       .  S
C1407      H1418   1.111       .  S
C1407      H1419   1.110       .  S
C1407      H1420   1.107       .  S
C1421      C1422   1.408       .  A
C1421      C1426   1.417       .  A
C1421      H1431   1.084       .  S
C1422      C1427   1.497       .  S
C1422      C1423   1.407       .  A
C1423      C1424   1.403       .  A
C1423      C1428   1.508       .  S
C1424      C1425   1.417       .  A
C1424      H1429   1.083       .  S
C1425      C1426   1.420       .  A
C1426      C1430   1.505       .  S
C1427      C1432   1.414       .  A
C1427      C1436   1.402       .  A
C1428      H1444   1.109       .  S
C1428      H1445   1.111       .  S
C1428      H1446   1.111       .  S
C1430      H1441   1.110       .  S
C1430      H1442   1.111       .  S
C1430      H1443   1.110       .  S
C1432      C1433   1.411       .  A
C1432      C1437   1.505       .  S
C1433      C1434   1.408       .  A
C1433      H1438   1.084       .  S
C1434      C1435   1.421       .  A
C1435      C1436   1.406       .  A
C1435      C1439   1.507       .  S
C1436      H1440   1.085       .  S
C1437      H1447   1.110       .  S
C1437      H1448   1.110       .  S
C1437      H1449   1.109       .  S
C1439      H1450   1.110       .  S
C1439      H1451   1.109       .  S
C1439      H1452   1.111       .  S
C1453      C1454   1.407       .  A
C1453      C1458   1.418   1_455  A
C1453      H1463   1.084       .  S
C1454      C1459   1.495       .  S
C1454      C1455   1.406   1_455  A
C1455      C1456   1.402       .  A
C1455      C1460   1.508       .  S
C1456      C1457   1.416       .  A
C1456      H1461   1.083       .  S
C1457      C1458   1.419       .  A
C1458      C1462   1.504       .  S
C1459      C1464   1.409       .  A
C1459      C1468   1.404       .  A
C1460      H1476   1.110       .  S
C1460      H1477   1.110   1_655  S
C1460      H1478   1.111       .  S
C1462      H1473   1.111   1_655  S
C1462      H1474   1.110       .  S
C1462      H1475   1.110   1_655  S
C1464      C1465   1.406       .  A
C1464      C1469   1.507       .  S
C1465      C1466   1.412       .  A
C1465      H1470   1.084       .  S
C1466      C1467   1.421       .  A
C1467      C1468   1.413       .  A
C1467      C1471   1.506       .  S
C1468      H1472   1.084       .  S
C1469      H1479   1.111       .  S
C1469      H1480   1.110       .  S
C1469      H1481   1.110       .  S
C1471      H1482   1.110       .  S
C1471      H1483   1.110       .  S
C1471      H1484   1.111       .  S
C1485      C1486   1.403       .  A
C1485      C1490   1.411       .  A
C1485      H1495   1.084       .  S
C1486      C1491   1.484       .  S
C1486      C1487   1.406       .  A
C1487      C1488   1.399       .  A
C1487      C1492   1.508       .  S
C1488      C1489   1.413       .  A
C1488      H1493   1.083       .  S
C1489      C1490   1.422       .  A
C1490      C1494   1.506       .  S
C1491      C1496   1.408       .  A
C1491      C1500   1.401       .  A
C1492      H1508   1.110       .  S
C1492      H1509   1.110       .  S
C1492      H1510   1.111       .  S
C1494      H1505   1.110       .  S
C1494      H1506   1.111       .  S
C1494      H1507   1.108       .  S
C1496      C1497   1.403       .  A
C1496      C1501   1.506       .  S
C1497      C1498   1.408       .  A
C1497      H1502   1.084       .  S
C1498      C1499   1.421       .  A
C1499      C1500   1.406       .  A
C1499      C1503   1.508       .  S
C1500      H1504   1.084       .  S
C1501      H1511   1.111       .  S
C1501      H1512   1.110       .  S
C1501      H1513   1.110       .  S
C1503      H1514   1.111       .  S
C1503      H1515   1.109       .  S
C1503      H1516   1.111       .  S
C1517      C1518   1.406       .  A
C1517      C1522   1.412       .  A
C1517      H1527   1.084       .  S
C1518      C1523   1.486       .  S
C1518      C1519   1.408       .  A
C1519      C1520   1.398       .  A
C1519      C1524   1.508       .  S
C1520      C1521   1.408       .  A
C1520      H1525   1.084       .  S
C1521      C1522   1.417       .  A
C1522      C1526   1.505       .  S
C1523      C1528   1.407       .  A
C1523      C1532   1.402       .  A
C1524      H1540   1.110       .  S
C1524      H1541   1.110       .  S
C1524      H1542   1.111       .  S
C1526      H1537   1.110       .  S
C1526      H1538   1.111       .  S
C1526      H1539   1.108       .  S
C1528      C1529   1.402       .  A
C1528      C1533   1.507       .  S
C1529      C1530   1.412       .  A
C1529      H1534   1.082       .  S
C1530      C1531   1.423       .  A
C1531      C1532   1.410       .  A
C1531      C1535   1.507       .  S
C1532      H1536   1.084       .  S
C1533      H1543   1.111       .  S
C1533      H1544   1.110       .  S
C1533      H1545   1.110       .  S
C1535      H1546   1.111       .  S
C1535      H1547   1.110       .  S
C1535      H1548   1.110       .  S
C1549      C1550   1.401       .  A
C1549      C1554   1.407       .  A
C1549      H1559   1.084       .  S
C1550      C1555   1.502       .  S
C1550      C1551   1.416       .  A
C1551      C1552   1.415       .  A
C1551      C1556   1.504       .  S
C1552      C1553   1.408       .  A
C1552      H1557   1.084       .  S
C1553      C1554   1.425       .  A
C1554      C1558   1.511       .  S
C1555      C1560   1.409       .  A
C1555      C1564   1.409       .  A
C1556      H1572   1.110       .  S
C1556      H1573   1.109       .  S
C1556      H1574   1.111       .  S
C1558      H1569   1.111       .  S
C1558      H1570   1.109       .  S
C1558      H1571   1.111       .  S
C1560      C1561   1.404       .  A
C1560      C1565   1.509       .  S
C1561      C1562   1.415       .  A
C1561      H1566   1.083       .  S
C1562      C1563   1.422       .  A
C1563      C1564   1.419       .  A
C1563      C1567   1.505       .  S
C1564      H1568   1.084       .  S
C1565      H1575   1.111       .  S
C1565      H1576   1.109       .  S
C1565      H1577   1.111       .  S
C1567      H1578   1.111       .  S
C1567      H1579   1.110       .  S
C1567      H1580   1.109       .  S
C1581      C1582   1.406       .  A
C1581      C1586   1.417       .  A
C1581      H1591   1.084       .  S
C1582      C1587   1.500       .  S
C1582      C1583   1.409       .  A
C1583      C1584   1.407       .  A
C1583      C1588   1.508       .  S
C1584      C1585   1.414       .  A
C1584      H1589   1.083       .  S
C1585      C1586   1.423       .  A
C1586      C1590   1.506       .  S
C1587      C1592   1.407       .  A
C1587      C1596   1.407       .  A
C1588      H1604   1.110       .  S
C1588      H1605   1.109       .  S
C1588      H1606   1.111       .  S
C1590      H1601   1.111       .  S
C1590      H1602   1.108       .  S
C1590      H1603   1.110       .  S
C1592      C1593   1.406       .  A
C1592      C1597   1.509       .  S
C1593      C1594   1.417       .  A
C1593      H1598   1.083       .  S
C1594      C1595   1.422       .  A
C1595      C1596   1.419       .  A
C1595      C1599   1.504       .  S
C1596      H1600   1.084       .  S
C1597      H1607   1.111       .  S
C1597      H1608   1.110       .  S
C1597      H1609   1.109       .  S
C1599      H1610   1.110       .  S
C1599      H1611   1.110       .  S
C1599      H1612   1.111       .  S
C1613      C1614   1.399       .  A
C1613      C1618   1.397       .  A
C1613      H1623   1.085       .  S
C1614      C1619   1.470       .  S
C1614      C1615   1.410       .  A
C1615      C1616   1.400       .  A
C1615      C1620   1.507       .  S
C1616      C1617   1.402       .  A
C1616      H1621   1.085       .  S
C1617      C1618   1.412       .  A
C1618      C1622   1.507       .  S
C1619      C1624   1.410       .  A
C1619      C1628   1.396       .  A
C1620      H1636   1.110       .  S
C1620      H1637   1.110       .  S
C1620      H1638   1.111       .  S
C1622      H1633   1.110       .  S
C1622      H1634   1.110       .  S
C1622      H1635   1.110       .  S
C1624      C1625   1.398       .  A
C1624      C1629   1.509       .  S
C1625      C1626   1.404       .  A
C1625      H1630   1.084       .  S
C1626      C1627   1.422       .  A
C1627      C1628   1.402       .  A
C1627      C1631   1.510       .  S
C1628      H1632   1.084       .  S
C1629      H1639   1.111       .  S
C1629      H1640   1.110       .  S
C1629      H1641   1.110       .  S
C1631      H1642   1.111       .  S
C1631      H1643   1.111       .  S
C1631      H1644   1.109       .  S
C1645      C1646   1.408       .  A
C1645      C1650   1.419       .  A
C1645      H1655   1.084       .  S
C1646      C1651   1.502       .  S
C1646      C1647   1.408       .  A
C1647      C1648   1.406       .  A
C1647      C1652   1.508       .  S
C1648      C1649   1.416       .  A
C1648      H1653   1.083       .  S
C1649      C1650   1.422       .  A
C1650      C1654   1.504       .  S
C1651      C1656   1.407       .  A
C1651      C1660   1.408       .  A
C1652      H1668   1.110       .  S
C1652      H1669   1.110       .  S
C1652      H1670   1.111       .  S
C1654      H1665   1.111       .  S
C1654      H1666   1.107       .  S
C1654      H1667   1.110       .  S
C1656      C1657   1.406       .  A
C1656      C1661   1.508       .  S
C1657      C1658   1.417       .  A
C1657      H1662   1.083       .  S
C1658      C1659   1.423       .  A
C1659      C1660   1.420       .  A
C1659      C1663   1.505       .  S
C1660      H1664   1.084       .  S
C1661      H1671   1.111       .  S
C1661      H1672   1.110       .  S
C1661      H1673   1.110       .  S
C1663      H1674   1.110       .  S
C1663      H1675   1.110       .  S
C1663      H1676   1.111       .  S
C1677      C1678   1.402   1_554  A
C1677      C1682   1.402       .  A
C1677      H1687   1.084       .  S
C1678      C1683   1.477       .  S
C1678      C1679   1.407       .  A
C1679      C1680   1.403       .  A
C1679      C1684   1.506       .  S
C1680      C1681   1.408       .  A
C1680      H1685   1.084       .  S
C1681      C1682   1.413   1_556  A
C1682      C1686   1.508       .  S
C1683      C1688   1.411       .  A
C1683      C1692   1.401       .  A
C1684      H1700   1.110       .  S
C1684      H1701   1.110       .  S
C1684      H1702   1.111       .  S
C1686      H1697   1.111       .  S
C1686      H1698   1.109       .  S
C1686      H1699   1.111       .  S
C1688      C1689   1.402       .  A
C1688      C1693   1.506       .  S
C1689      C1690   1.402       .  A
C1689      H1694   1.084       .  S
C1690      C1691   1.413       .  A
C1691      C1692   1.400       .  A
C1691      C1695   1.507       .  S
C1692      H1696   1.084       .  S
C1693      H1703   1.110       .  S
C1693      H1704   1.110   1_556  S
C1693      H1705   1.110       .  S
C1695      H1706   1.110       .  S
C1695      H1707   1.110       .  S
C1695      H1708   1.110       .  S
C1709      C1710   1.409       .  A
C1709      C1714   1.420       .  A
C1709      H1719   1.084       .  S
C1710      C1715   1.506       .  S
C1710      C1711   1.410       .  A
C1711      C1712   1.406   1_556  A
C1711      C1716   1.509   1_556  S
C1712      C1713   1.416   1_554  A
C1712      H1717   1.083       .  S
C1713      C1714   1.422       .  A
C1714      C1718   1.505       .  S
C1715      C1720   1.416       .  A
C1715      C1724   1.402       .  A
C1716      H1732   1.108       .  S
C1716      H1733   1.111   1_554  S
C1716      H1734   1.111       .  S
C1718      H1729   1.109       .  S
C1718      H1730   1.111       .  S
C1718      H1731   1.110       .  S
C1720      C1721   1.416       .  A
C1720      C1725   1.505       .  S
C1721      C1722   1.409       .  A
C1721      H1726   1.084       .  S
C1722      C1723   1.424       .  A
C1723      C1724   1.409       .  A
C1723      C1727   1.510       .  S
C1724      H1728   1.084       .  S
C1725      H1735   1.111       .  S
C1725      H1736   1.109       .  S
C1725      H1737   1.110       .  S
C1727      H1738   1.111       .  S
C1727      H1739   1.108       .  S
C1727      H1740   1.111       .  S
C1741      C1742   1.400       .  A
C1741      C1746   1.407       .  A
C1741      H1751   1.084       .  S
C1742      C1747   1.481       .  S
C1742      C1743   1.407       .  A
C1743      C1744   1.402       .  A
C1743      C1748   1.508       .  S
C1744      C1745   1.411       .  A
C1744      H1749   1.083       .  S
C1745      C1746   1.423       .  A
C1746      C1750   1.508       .  S
C1747      C1752   1.406       .  A
C1747      C1756   1.402       .  A
C1748      H1764   1.110       .  S
C1748      H1765   1.110       .  S
C1748      H1766   1.111       .  S
C1750      H1761   1.111       .  S
C1750      H1762   1.110       .  S
C1750      H1763   1.110       .  S
C1752      C1753   1.398       .  A
C1752      C1757   1.509       .  S
C1753      C1754   1.411       .  A
C1753      H1758   1.083       .  S
C1754      C1755   1.422       .  A
C1755      C1756   1.410       .  A
C1755      C1759   1.507       .  S
C1756      H1760   1.084       .  S
C1757      H1767   1.111       .  S
C1757      H1768   1.110       .  S
C1757      H1769   1.110       .  S
C1759      H1770   1.111       .  S
C1759      H1771   1.109       .  S
C1759      H1772   1.109       .  S
C1773      C1774   1.401       .  A
C1773      C1778   1.408       .  A
C1773      H1783   1.084       .  S
C1774      C1779   1.476       .  S
C1774      C1775   1.406       .  A
C1775      C1776   1.397       .  A
C1775      C1780   1.509       .  S
C1776      C1777   1.410       .  A
C1776      H1781   1.084       .  S
C1777      C1778   1.421       .  A
C1778      C1782   1.506       .  S
C1779      C1784   1.409       .  A
C1779      C1788   1.400       .  A
C1780      H1796   1.110       .  S
C1780      H1797   1.110       .  S
C1780      H1798   1.111       .  S
C1782      H1793   1.110       .  S
C1782      H1794   1.111       .  S
C1782      H1795   1.110       .  S
C1784      C1785   1.404       .  A
C1784      C1789   1.506       .  S
C1785      C1786   1.405       .  A
C1785      H1790   1.084       .  S
C1786      C1787   1.417       .  A
C1787      C1788   1.401       .  A
C1787      C1791   1.509       .  S
C1788      H1792   1.084       .  S
C1789      H1799   1.111       .  S
C1789      H1800   1.110       .  S
C1789      H1801   1.110       .  S
C1791      H1802   1.109       .  S
C1791      H1803   1.111       .  S
C1791      H1804   1.111       .  S
C1805      C1806   1.405       .  A
C1805      C1810   1.410       .  A
C1805      H1815   1.084       .  S
C1806      C1811   1.497       .  S
C1806      C1807   1.413       .  A
C1807      C1808   1.409       .  A
C1807      C1812   1.506       .  S
C1808      C1809   1.408       .  A
C1808      H1813   1.083       .  S
C1809      C1810   1.418       .  A
C1810      C1814   1.508       .  S
C1811      C1816   1.407       .  A
C1811      C1820   1.407       .  A
C1812      H1828   1.110       .  S
C1812      H1829   1.110       .  S
C1812      H1830   1.111       .  S
C1814      H1825   1.111       .  S
C1814      H1826   1.108       .  S
C1814      H1827   1.110       .  S
C1816      C1817   1.403       .  A
C1816      C1821   1.508       .  S
C1817      C1818   1.416       .  A
C1817      H1822   1.083       .  S
C1818      C1819   1.421       .  A
C1819      C1820   1.417       .  A
C1819      C1823   1.505       .  S
C1820      H1824   1.084       .  S
C1821      H1831   1.111       .  S
C1821      H1832   1.109       .  S
C1821      H1833   1.110       .  S
C1823      H1834   1.111       .  S
C1823      H1835   1.110       .  S
C1823      H1836   1.110       .  S
C1837      C1838   1.393       .  A
C1837      C1842   1.402       .  A
C1837      H1847   1.084       .  S
C1838      C1843   1.472       .  S
C1838      C1839   1.410       .  A
C1839      C1840   1.401       .  A
C1839      C1844   1.508       .  S
C1840      C1841   1.407       .  A
C1840      H1845   1.083       .  S
C1841      C1842   1.428       .  A
C1842      C1846   1.507       .  S
C1843      C1848   1.410       .  A
C1843      C1852   1.401       .  A
C1844      H1860   1.110       .  S
C1844      H1861   1.110       .  S
C1844      H1862   1.111       .  S
C1846      H1857   1.110       .  S
C1846      H1858   1.111       .  S
C1846      H1859   1.110       .  S
C1848      C1849   1.400       .  A
C1848      C1853   1.506       .  S
C1849      C1850   1.403       .  A
C1849      H1854   1.085       .  S
C1850      C1851   1.411       .  A
C1851      C1852   1.399       .  A
C1851      C1855   1.506       .  S
C1852      H1856   1.085       .  S
C1853      H1863   1.110       .  S
C1853      H1864   1.110       .  S
C1853      H1865   1.110       .  S
C1855      H1866   1.110       .  S
C1855      H1867   1.110       .  S
C1855      H1868   1.110       .  S
C1869      C1870   1.402       .  A
C1869      C1874   1.409       .  A
C1869      H1879   1.084       .  S
C1870      C1875   1.506       .  S
C1870      C1871   1.417       .  A
C1871      C1872   1.417       .  A
C1871      C1876   1.506       .  S
C1872      C1873   1.410       .  A
C1872      H1877   1.084       .  S
C1873      C1874   1.423       .  A
C1874      C1878   1.508       .  S
C1875      C1880   1.417       .  A
C1875      C1884   1.397       .  A
C1876      H1892   1.110       .  S
C1876      H1893   1.107       .  S
C1876      H1894   1.111       .  S
C1878      H1889   1.110       .  S
C1878      H1890   1.111       .  S
C1878      H1891   1.108       .  S
C1880      C1881   1.417       .  A
C1880      C1885   1.503       .  S
C1881      C1882   1.409       .  A
C1881      H1886   1.083       .  S
C1882      C1883   1.436       .  A
C1883      C1884   1.410       .  A
C1883      C1887   1.511       .  S
C1884      H1888   1.084       .  S
C1885      H1895   1.111       .  S
C1885      H1896   1.110       .  S
C1885      H1897   1.103       .  S
C1887      H1898   1.111       .  S
C1887      H1899   1.111       .  S
C1887      H1900   1.110       .  S
C1901      C1902   1.398       .  A
C1901      C1906   1.403       .  A
C1901      H1911   1.084       .  S
C1902      C1907   1.474       .  S
C1902      C1903   1.411       .  A
C1903      C1904   1.400       .  A
C1903      C1908   1.508       .  S
C1904      C1905   1.403       .  A
C1904      H1909   1.084       .  S
C1905      C1906   1.421       .  A
C1906      C1910   1.509       .  S
C1907      C1912   1.410       .  A
C1907      C1916   1.399       .  A
C1908      H1924   1.110       .  S
C1908      H1925   1.109       .  S
C1908      H1926   1.111       .  S
C1910      H1921   1.111       .  S
C1910      H1922   1.111       .  S
C1910      H1923   1.109       .  S
C1912      C1913   1.403       .  A
C1912      C1917   1.507       .  S
C1913      C1914   1.404       .  A
C1913      H1918   1.084       .  S
C1914      C1915   1.415       .  A
C1915      C1916   1.399       .  A
C1915      C1919   1.507       .  S
C1916      H1920   1.085       .  S
C1917      H1927   1.111       .  S
C1917      H1928   1.110       .  S
C1917      H1929   1.109       .  S
C1919      H1930   1.110       .  S
C1919      H1931   1.109       .  S
C1919      H1932   1.111       .  S
C1933      C1934   1.406       .  A
C1933      C1938   1.416       .  A
C1933      H1943   1.084       .  S
C1934      C1939   1.500       .  S
C1934      C1935   1.411       .  A
C1935      C1936   1.407       .  A
C1935      C1940   1.507       .  S
C1936      C1937   1.413       .  A
C1936      H1941   1.084       .  S
C1937      C1938   1.422       .  A
C1938      C1942   1.506       .  S
C1939      C1944   1.412       .  A
C1939      C1948   1.408       .  A
C1940      H1956   1.110       .  S
C1940      H1957   1.109       .  S
C1940      H1958   1.111       .  S
C1942      H1953   1.111       .  S
C1942      H1954   1.110   1_554  S
C1942      H1955   1.110       .  S
C1944      C1945   1.404       .  A
C1944      C1949   1.509       .  S
C1945      C1946   1.414       .  A
C1945      H1950   1.084       .  S
C1946      C1947   1.422       .  A
C1947      C1948   1.418       .  A
C1947      C1951   1.506       .  S
C1948      H1952   1.084       .  S
C1949      H1959   1.110       .  S
C1949      H1960   1.111       .  S
C1949      H1961   1.108       .  S
C1951      H1962   1.109       .  S
C1951      H1963   1.110       .  S
C1951      H1964   1.111       .  S
C1965      C1966   1.402   1_554  A
C1965      C1970   1.402       .  A
C1965      H1975   1.085       .  S
C1966      C1971   1.478       .  S
C1966      C1967   1.407       .  A
C1967      C1968   1.403       .  A
C1967      C1972   1.506       .  S
C1968      C1969   1.409       .  A
C1968      H1973   1.084       .  S
C1969      C1970   1.416   1_556  A
C1970      C1974   1.508       .  S
C1971      C1976   1.411       .  A
C1971      C1980   1.401       .  A
C1972      H1988   1.110       .  S
C1972      H1989   1.110       .  S
C1972      H1990   1.111       .  S
C1974      H1985   1.111       .  S
C1974      H1986   1.109       .  S
C1974      H1987   1.111       .  S
C1976      C1977   1.402       .  A
C1976      C1981   1.507       .  S
C1977      C1978   1.403       .  A
C1977      H1982   1.084       .  S
C1978      C1979   1.414       .  A
C1979      C1980   1.402       .  A
C1979      C1983   1.508       .  S
C1980      H1984   1.084       .  S
C1981      H1991   1.111   1_556  S
C1981      H1992   1.110   1_556  S
C1981      H1993   1.110       .  S
C1983      H1994   1.111       .  S
C1983      H1995   1.109       .  S
C1983      H1996   1.110       .  S
C1997      C1998   1.401       .  A
C1997      C2002   1.407   1_556  A
C1997      H2007   1.084   1_556  S
C1998      C2003   1.494       .  S
C1998      C1999   1.413       .  A
C1999      C2000   1.411       .  A
C1999      C2004   1.505       .  S
C2000      C2001   1.408       .  A
C2000      H2005   1.084       .  S
C2001      C2002   1.421   1_556  A
C2002      C2006   1.506       .  S
C2003      C2008   1.406       .  A
C2003      C2012   1.407       .  A
C2004      H2020   1.110       .  S
C2004      H2021   1.108       .  S
C2004      H2022   1.110       .  S
C2006      H2017   1.109       .  S
C2006      H2018   1.110       .  S
C2006      H2019   1.109       .  S
C2008      C2009   1.403       .  A
C2008      C2013   1.508       .  S
C2009      C2010   1.416       .  A
C2009      H2014   1.083       .  S
C2010      C2011   1.419       .  A
C2011      C2012   1.416       .  A
C2011      C2015   1.505       .  S
C2012      H2016   1.084       .  S
C2013      H2023   1.110       .  S
C2013      H2024   1.110       .  S
C2013      H2025   1.109       .  S
C2015      H2026   1.111       .  S
C2015      H2027   1.111       .  S
C2015      H2028   1.109       .  S
C2029      C2030   1.399       .  A
C2029      C2034   1.404       .  A
C2029      H2039   1.085       .  S
C2030      C2035   1.472       .  S
C2030      C2031   1.405       .  A
C2031      C2032   1.396       .  A
C2031      C2036   1.508       .  S
C2032      C2033   1.410       .  A
C2032      H2037   1.084       .  S
C2033      C2034   1.422       .  A
C2034      C2038   1.507       .  S
C2035      C2040   1.403       .  A
C2035      C2044   1.400       .  A
C2036      H2052   1.110       .  S
C2036      H2053   1.110       .  S
C2036      H2054   1.111       .  S
C2038      H2049   1.110       .  S
C2038      H2050   1.111       .  S
C2038      H2051   1.109       .  S
C2040      C2041   1.394       .  A
C2040      C2045   1.509       .  S
C2041      C2042   1.413       .  A
C2041      H2046   1.083       .  S
C2042      C2043   1.420       .  A
C2043      C2044   1.407       .  A
C2043      C2047   1.504       .  S
C2044      H2048   1.084       .  S
C2045      H2055   1.111       .  S
C2045      H2056   1.110       .  S
C2045      H2057   1.110       .  S
C2047      H2058   1.110       .  S
C2047      H2059   1.108       .  S
C2047      H2060   1.106       .  S
C2061      C2062   1.398       .  A
C2061      C2066   1.397       .  A
C2061      H2071   1.085       .  S
C2062      C2067   1.474       .  S
C2062      C2063   1.410       .  A
C2063      C2064   1.405       .  A
C2063      C2068   1.505       .  S
C2064      C2065   1.402       .  A
C2064      H2069   1.082       .  S
C2065      C2066   1.415       .  A
C2066      C2070   1.510       .  S
C2067      C2072   1.405       .  A
C2067      C2076   1.401       .  A
C2068      H2084   1.110       .  S
C2068      H2085   1.110       .  S
C2068      H2086   1.109   1_545  S
C2070      H2081   1.111       .  S
C2070      H2082   1.109       .  S
C2070      H2083   1.110       .  S
C2072      C2073   1.398       .  A
C2072      C2077   1.508       .  S
C2073      C2074   1.410       .  A
C2073      H2078   1.084       .  S
C2074      C2075   1.418       .  A
C2075      C2076   1.405       .  A
C2075      C2079   1.507       .  S
C2076      H2080   1.084       .  S
C2077      H2087   1.111       .  S
C2077      H2088   1.110       .  S
C2077      H2089   1.110       .  S
C2079      H2090   1.111       .  S
C2079      H2091   1.110       .  S
C2079      H2092   1.110       .  S
C2093      C2094   1.401       .  A
C2093      C2098   1.403       .  A
C2093      H2103   1.084       .  S
C2094      C2099   1.476       .  S
C2094      C2095   1.408       .  A
C2095      C2096   1.400       .  A
C2095      C2100   1.506       .  S
C2096      C2097   1.406       .  A
C2096      H2101   1.085       .  S
C2097      C2098   1.415       .  A
C2098      C2102   1.506       .  S
C2099      C2104   1.412       .  A
C2099      C2108   1.397       .  A
C2100      H2116   1.110       .  S
C2100      H2117   1.110       .  S
C2100      H2118   1.111       .  S
C2102      H2113   1.107   1_556  S
C2102      H2114   1.111       .  S
C2102      H2115   1.110       .  S
C2104      C2105   1.401   1_556  A
C2104      C2109   1.508   1_556  S
C2105      C2106   1.402   1_554  A
C2105      H2110   1.084       .  S
C2106      C2107   1.421       .  A
C2107      C2108   1.404       .  A
C2107      C2111   1.508       .  S
C2108      H2112   1.084       .  S
C2109      H2119   1.111       .  S
C2109      H2120   1.110       .  S
C2109      H2121   1.110       .  S
C2111      H2122   1.107       .  S
C2111      H2123   1.111       .  S
C2111      H2124   1.111       .  S
