geometry optimzed in LAMMPS
_audit_creation_date              2020-12-01 
_audit_creation_method            'lammps2cif' 
_symmetry_space_group_name_H-M    'P1' 
_symmetry_Int_Tables_number       1 
_symmetry_cell_setting            triclinic 
loop_ 
_symmetry_equiv_pos_as_xyz 
  x,y,z 
_cell_length_a                    30.87723521 
_cell_length_b                    30.830209930697222 
_cell_length_c                    82.2535362205414 
_cell_angle_alpha                 89.86395179504746 
_cell_angle_beta                  90.03634178334705 
_cell_angle_gamma                 120.03292515329865 
loop_ 
_atom_site_label 
_atom_site_type_symbol 
_atom_site_fract_x 
_atom_site_fract_y 
_atom_site_fract_z 
_atom_site_charge 
Zr1        Zr  0.90650773  0.17019592  0.55806607     2.17500
O2          O  0.88994420  0.11900106  0.53378003    -0.52500
O3          O  0.98996122  0.18364133  0.56275881    -0.75700
O4          O  0.95190577  0.22380970  0.53525482    -0.82400
O5          O  0.83901400  0.05642993  0.58462972    -0.84200
O6          O  0.95167887  0.29732030  0.53655290    -0.79800
O7          O  0.88834916  0.08455907  0.56219471    -0.91400
O8          O  0.02020503  0.23344657  0.58497033    -0.77400
O9          O  0.95057492  0.25496937  0.56688930    -0.86900
O10         O  0.91473223  0.16741095  0.58675322    -0.86600
O11         O  0.85632864  0.20615470  0.54991499    -0.73300
O12         O  0.82257019  0.12449871  0.56825991    -0.85500
Zr13       Zr  0.82419941  0.24313872  0.59929182     2.26400
Zr14       Zr  0.89993830  0.29051977  0.55987525     2.06300
Zr15       Zr  0.83125956  0.12348856  0.59700153     2.10000
Zr16       Zr  0.95855361  0.25249248  0.59538238     1.78800
O17         O  0.74516244  0.05595400  0.60015068    -0.94300
O18         O  0.03146420  0.33332004  0.58881755    -0.42100
O19         O  0.87585028  0.20823936  0.60609709    -0.78700
O20         O  0.90867924  0.28973925  0.58885296    -0.97400
O21         O  0.81649772  0.24665040  0.57048598    -0.90700
O22         O  0.77959760  0.15828290  0.59015086    -0.93600
C23         C  0.02431451  0.20837432  0.57326177     1.00200
C24         C  0.86204507  0.05038488  0.57265432     1.13100
C25         C  0.96488000  0.26792394  0.52995858     1.03900
O26         O  0.97444242  0.37323499  0.55931534    -0.95700
O27         O  0.88709290  0.35614213  0.57065188    -0.91500
O28         O  0.84692884  0.33045489  0.59489271    -0.84600
C29         C  0.86838000  0.36326023  0.58360616     1.10500
O30         O  0.75323548  0.11052347  0.53692282    -0.97700
Zr31       Zr  0.77364325  0.16228867  0.56124916     1.88900
O32         O  0.73648686  0.22059962  0.59551244    -0.74300
O33         O  0.86064240  0.30803243  0.53708166    -0.53600
O34         O  0.75497230  0.20227456  0.53883214    -0.98300
O35         O  0.69944856  0.07957222  0.56398062    -0.55500
O36         O  0.70918119  0.17645220  0.57209330    -0.74900
C37         C  0.70297267  0.19768995  0.58452801     0.97500
O38         O  0.81520696  0.28317380  0.62362394    -0.63700
O39         O  0.85538115  0.08028435  0.61678120    -0.58500
O40         O  0.81726093  0.20935616  0.62694112    -0.95200
O41         O  0.82359113  0.13924797  0.62522390    -0.93600
O42         O  0.98003410  0.21930201  0.61898799    -0.93900
O43         O  0.98640694  0.30956503  0.61843301    -0.92700
C44         C  0.81941375  0.17228474  0.63338273     1.16300
H45         H  0.93228886  0.15001412  0.58978181     0.32300
H46         H  0.92581333  0.32342073  0.59310376     0.43100
H47         H  0.74724409  0.14003572  0.59531074     0.36700
H48         H  0.85413243  0.20626183  0.53819385     0.33100
H49         H  0.05962347  0.33339080  0.59460999     0.24900
H50         H  0.83101734  0.30767582  0.54184157     0.30900
H51         H  0.72907610  0.20939963  0.54296526     0.36800
H52         H  0.94809421  0.18960672  0.62230451     0.31200
H53         H  0.82935129  0.04446437  0.61606233     0.30100
H54         H  0.73536103  0.06074250  0.61116769     0.31800
H55         H  0.67163614  0.08340809  0.55962352     0.30800
H56         H  0.95564911  0.30839556  0.62248451     0.34800
H57         H  0.84879402  0.31239058  0.62569786     0.27500
H58         H  0.92328328  0.12653788  0.52980810     0.31700
H59         H  0.72091155  0.10594778  0.53296981     0.34600
H60         H  0.88607663  0.08206875  0.61237535     0.27200
H61         H  0.79407743  0.29759431  0.62045675     0.40000
H62         H  0.98882128  0.37779723  0.57036051     0.30100
H63         H  0.03829657  0.33109783  0.57717868     0.37700
H64         H  0.69283058  0.07462194  0.57580151     0.29600
H65         H  0.88386704  0.34371416  0.53445055     0.29600
H66         H  0.87777324  0.13388430  0.52555827     0.29900
Zr67       Zr  0.15199449  0.29293218  0.44494138     2.17500
O68         O  0.17078741  0.26053331  0.46937097    -0.52500
O69         O  0.06807720  0.22415198  0.44030627    -0.75700
O70         O  0.10654733  0.30010556  0.46787499    -0.82400
O71         O  0.21885117  0.24674432  0.41874537    -0.84200
O72         O  0.10998589  0.37544079  0.46704381    -0.79800
O73         O  0.16827802  0.22440130  0.44089231    -0.91400
O74         O  0.03718634  0.24662797  0.41889347    -0.77400
O75         O  0.10893654  0.33450998  0.43587730    -0.86900
O76         O  0.14489330  0.28261647  0.41619250    -0.86600
O77         O  0.20257882  0.37846032  0.45338353    -0.73300
O78         O  0.23607130  0.33044581  0.43495642    -0.85500
Zr79       Zr  0.23644577  0.44922525  0.40417469     2.26400
Zr80       Zr  0.16019746  0.42021570  0.44338106     2.06300
Zr81       Zr  0.22863325  0.32210688  0.40615472     2.10000
Zr82       Zr  0.10192763  0.32442414  0.40731613     1.78800
O83         O  0.31432435  0.33946538  0.40314332    -0.94300
O84         O  0.02894756  0.33448862  0.41031498    -0.42100
O85         O  0.18496363  0.36291972  0.39705268    -0.78700
O86         O  0.15157266  0.41133912  0.41436254    -0.97400
O87         O  0.24374502  0.45930741  0.43298821    -0.90700
O88         O  0.28041322  0.40828408  0.41335334    -0.93600
C89         C  0.03299536  0.21646933  0.43034478     1.00200
C90         C  0.19515990  0.21710616  0.43057321     1.13100
C91         C  0.09537832  0.33219858  0.47345272     1.03900
O92         O  0.08582951  0.42789049  0.44606236    -0.95700
O93         O  0.17271760  0.49866219  0.43242870    -0.91500
O94         O  0.21305044  0.51360472  0.40821911    -0.84600
C95         C  0.19138990  0.52475350  0.41946868     1.10500
O96         O  0.30453079  0.38393288  0.46668744    -0.97700
Zr97       Zr  0.28544882  0.41667908  0.44233457     1.88900
O98         O  0.32371229  0.51411106  0.40895839    -0.74300
O99         O  0.20375674  0.47746482  0.46568503    -0.53600
O100        O  0.30400879  0.47355600  0.46518101    -0.98300
O101        O  0.35942358  0.40828156  0.43888071    -0.55500
O102        O  0.34991886  0.49662788  0.43255547    -0.74900
C103        C  0.35653557  0.52446838  0.42017448     0.97500
O104        O  0.25100458  0.50019597  0.37985592    -0.63700
O105        O  0.20429172  0.25557902  0.38613846    -0.58500
O106        O  0.24271602  0.42275936  0.37638566    -0.95200
O107        O  0.23643496  0.34625971  0.37788853    -0.93600
O108        O  0.07792641  0.26372961  0.38536555    -0.93900
O109        O  0.08458343  0.35594912  0.38242205    -0.92700
C110        C  0.24037460  0.38365954  0.36980955     1.16300
H111        H  0.12695197  0.24768971  0.41318559     0.32300
H112        H  0.13458192  0.42801862  0.41008755     0.43100
H113        H  0.31294647  0.42255337  0.40827057     0.36700
H114        H  0.20445241  0.38028116  0.46511694     0.33100
H115        H  0.00095027  0.30359578  0.40561162     0.24900
H116        H  0.22882292  0.50896880  0.46035474     0.30900
H117        H  0.34095944  0.49224601  0.46601736     0.36800
H118        H  0.04117606  0.24862165  0.38446359     0.31200
H119        H  0.22919581  0.24444044  0.38717185     0.30100
H120        H  0.31990094  0.34129279  0.39124943     0.31800
H121        H  0.38702237  0.43859117  0.44399776     0.30800
H122        H  0.11532527  0.36821378  0.37580102     0.34800
H123        H  0.21950323  0.50047018  0.37786765     0.27500
H124        H  0.13799510  0.23346142  0.47332179     0.31700
H125        H  0.33887698  0.40940646  0.46995315     0.34600
H126        H  0.17260858  0.22712424  0.39024231     0.27200
H127        H  0.27558054  0.53489245  0.38310807     0.40000
H128        H  0.07377844  0.42604029  0.43478789     0.30100
H129        H  0.02207509  0.33136847  0.42214395     0.37700
H130        H  0.36714272  0.41310768  0.42712012     0.29600
H131        H  0.17881290  0.48529698  0.47026274     0.29600
H132        H  0.18153769  0.28752854  0.47754118     0.29900
Zr133      Zr  0.16112747  0.91457754  0.44457908     2.17500
O134        O  0.11056096  0.89396839  0.46916727    -0.52500
O135        O  0.17506212  0.99813975  0.43986726    -0.75700
O136        O  0.21355375  0.96237418  0.46728974    -0.82400
O137        O  0.05006364  0.85166829  0.41739444    -0.84200
O138        O  0.28660374  0.96143724  0.46615154    -0.79800
O139        O  0.07680995  0.89892234  0.44023930    -0.91400
O140        O  0.22787221  0.02981235  0.41833584    -0.77400
O141        O  0.24574388  0.95892679  0.43561951    -0.86900
O142        O  0.15810295  0.92184082  0.41581667    -0.86600
O143        O  0.19653456  0.86432872  0.45304973    -0.73300
O144        O  0.11481564  0.83015698  0.43465798    -0.85500
Zr145      Zr  0.23408029  0.83182389  0.40384829     2.26400
Zr146      Zr  0.28068175  0.90832193  0.44323985     2.06300
Zr147      Zr  0.11419888  0.83781793  0.40592007     2.10000
Zr148      Zr  0.24297136  0.96597051  0.40704695     1.78800
O149        O  0.04797008  0.75030538  0.40514702    -0.94300
O150        O  0.32568383  0.03942717  0.41055539    -0.42100
O151        O  0.19891191  0.88288083  0.39672913    -0.78700
O152        O  0.28059580  0.91661037  0.41419801    -0.97400
O153        O  0.23689943  0.82478079  0.43273405    -0.90700
O154        O  0.14914180  0.78648088  0.41293878    -0.93600
C155        C  0.20171920  0.03341430  0.42982174     1.00200
C156        C  0.04363866  0.87436046  0.42937570     1.13100
C157        C  0.25749404  0.97524251  0.47263180     1.03900
O158        O  0.36432239  0.98133685  0.44436409    -0.95700
O159        O  0.34424068  0.89145106  0.43315913    -0.91500
O160        O  0.32036195  0.85232015  0.40873004    -0.84600
C161        C  0.35188927  0.87227807  0.42041736     1.10500
O162        O  0.09627353  0.76199627  0.46503526    -0.97700
Zr163      Zr  0.15253124  0.78131198  0.44189232     1.88900
O164        O  0.20792720  0.74306784  0.40702608    -0.74300
O165        O  0.29470036  0.86884844  0.46675884    -0.53600
O166        O  0.18829210  0.76311399  0.46554226    -0.98300
O167        O  0.07256084  0.70380450  0.43906707    -0.55500
O168        O  0.16988029  0.71820696  0.43158150    -0.74900
C169        C  0.18777581  0.71067423  0.41851866     0.97500
O170        O  0.28183253  0.81961513  0.38250071    -0.63700
O171        O  0.06679027  0.85224169  0.38495472    -0.58500
O172        O  0.20220104  0.82974122  0.37598660    -0.95200
O173        O  0.12940851  0.83082129  0.37769799    -0.93600
O174        O  0.20481015  0.98502332  0.38425168    -0.93900
O175        O  0.29404527  0.98838656  0.38253273    -0.92700
C176        C  0.16421188  0.83007304  0.36951675     1.16300
H177        H  0.14090654  0.93953459  0.41270797     0.32300
H178        H  0.31438979  0.93347901  0.41004886     0.43100
H179        H  0.13103485  0.75402589  0.40782444     0.36700
H180        H  0.19639617  0.86236692  0.46478231     0.33100
H181        H  0.32504203  0.06598128  0.40393722     0.24900
H182        H  0.28873596  0.83609487  0.46270745     0.30900
H183        H  0.17280866  0.72617661  0.46561750     0.36800
H184        H  0.21605757  0.02110447  0.38537231     0.31200
H185        H  0.03131992  0.82652099  0.38674868     0.30100
H186        H  0.01647333  0.75139109  0.40534539     0.31800
H187        H  0.07698100  0.67822104  0.44495800     0.30800
H188        H  0.29244451  0.95684479  0.37910739     0.34800
H189        H  0.25729992  0.79044382  0.37608362     0.27500
H190        H  0.11431630  0.92618471  0.47290592     0.31700
H191        H  0.09278076  0.73120009  0.47007234     0.34600
H192        H  0.06895222  0.88448137  0.38777148     0.27200
H193        H  0.29356019  0.84879949  0.37512033     0.40000
H194        H  0.36756061  0.99971683  0.43413722     0.30100
H195        H  0.32619933  0.05005553  0.42193847     0.37700
H196        H  0.07052520  0.69431657  0.42749073     0.29600
H197        H  0.33126714  0.88848850  0.46860374     0.29600
H198        H  0.12847964  0.88530581  0.47737982     0.29900
Zr199      Zr  0.28415021  0.15984034  0.55833944     2.17500
O200        O  0.25093137  0.17816672  0.53401112    -0.52500
O201        O  0.21629297  0.07469514  0.56245161    -0.75700
O202        O  0.29204496  0.11621946  0.53512116    -0.82400
O203        O  0.23617908  0.22330396  0.58518456    -0.84200
O204        O  0.36656923  0.11829801  0.53602666    -0.79800
O205        O  0.21505233  0.17491923  0.56260381    -0.91400
O206        O  0.23681748  0.04412926  0.58443619    -0.77400
O207        O  0.32618429  0.11683575  0.56697171    -0.86900
O208        O  0.27327391  0.15081589  0.58703335    -0.86600
O209        O  0.36979100  0.21197896  0.55016703    -0.73300
O210        O  0.32077287  0.24357421  0.56869283    -0.85500
Zr211      Zr  0.43963415  0.24313700  0.59947362     2.26400
Zr212      Zr  0.41187737  0.16919520  0.55962212     2.06300
Zr213      Zr  0.31199450  0.23410134  0.59744840     2.10000
Zr214      Zr  0.31584624  0.10819076  0.59550542     1.78800
O215        O  0.32886809  0.31948662  0.60143809    -0.94300
O216        O  0.32748334  0.03670336  0.59089654    -0.42100
O217        O  0.35343873  0.19054087  0.60630058    -0.78700
O218        O  0.40262784  0.15899423  0.58860789    -0.97400
O219        O  0.44985167  0.25201882  0.57064812    -0.90700
O220        O  0.39846274  0.28733392  0.59074006    -0.93600
C221        C  0.20766720  0.03968333  0.57263515     1.00200
C222        C  0.20704070  0.20050933  0.57322853     1.13100
C223        C  0.32362942  0.10449462  0.52954142     1.03900
O224        O  0.42243074  0.09661913  0.55621197    -0.95700
O225        O  0.49049674  0.18257014  0.57078630    -0.91500
O226        O  0.50414309  0.22013440  0.59546000    -0.84600
C227        C  0.51617987  0.20024176  0.58387065     1.10500
O228        O  0.37715501  0.31682777  0.53758522    -0.97700
Zr229      Zr  0.40727326  0.29428264  0.56180657     1.88900
O230        O  0.50277908  0.33176231  0.59563082    -0.74300
O231        O  0.46950692  0.21429611  0.53749244    -0.53600
O232        O  0.46507593  0.31662295  0.53902076    -0.98300
O233        O  0.39443760  0.36518264  0.56662615    -0.55500
O234        O  0.48662406  0.35890513  0.57198447    -0.74900
C235        C  0.51369006  0.36517188  0.58453359     0.97500
O236        O  0.50067042  0.25751253  0.62068642    -0.63700
O237        O  0.24485294  0.21023500  0.61721932    -0.58500
O238        O  0.40915672  0.24481078  0.62733387    -0.95200
O239        O  0.33235393  0.23745382  0.62575006    -0.93600
O240        O  0.26078243  0.08600307  0.61900589    -0.93900
O241        O  0.34553757  0.08496932  0.61958528    -0.92700
C242        C  0.36931161  0.24105202  0.63387887     1.16300
H243        H  0.23836196  0.13244424  0.59004195     0.32300
H244        H  0.41931787  0.14180267  0.59271099     0.43100
H245        H  0.41216575  0.31939107  0.59609532     0.36700
H246        H  0.37166686  0.21476182  0.53844880     0.33100
H247        H  0.29893729  0.00844777  0.59653163     0.24900
H248        H  0.47862712  0.19011207  0.53305058     0.30900
H249        H  0.49436194  0.31561604  0.54346964     0.36800
H250        H  0.27041433  0.11839522  0.62431415     0.31200
H251        H  0.23438945  0.23569631  0.61621420     0.30100
H252        H  0.30296221  0.32160023  0.59494772     0.31800
H253        H  0.42288809  0.39397531  0.56115549     0.30800
H254        H  0.36362861  0.11640150  0.62589718     0.34800
H255        H  0.50561023  0.28742458  0.62671156     0.27500
H256        H  0.22654750  0.14510713  0.52943114     0.31700
H257        H  0.40307847  0.35157851  0.53482597     0.34600
H258        H  0.21620208  0.17882276  0.61306486     0.27200
H259        H  0.48354537  0.22924585  0.62842444     0.40000
H260        H  0.40083941  0.07268044  0.56467083     0.30100
H261        H  0.32022925  0.02896433  0.57920199     0.37700
H262        H  0.40099417  0.37290540  0.57833813     0.29600
H263        H  0.44861565  0.21725154  0.52891974     0.29600
H264        H  0.27903252  0.19263434  0.52616360     0.29900
Zr265      Zr  0.77479490  0.90731585  0.44530994     2.17500
O266        O  0.80438127  0.95574103  0.47034674    -0.52500
O267        O  0.84568021  0.89557802  0.44001156    -0.75700
O268        O  0.77066838  0.85324332  0.46747988    -0.82400
O269        O  0.81971934  0.02072888  0.41862006    -0.84200
O270        O  0.69703822  0.77968453  0.46632221    -0.79800
O271        O  0.84093616  0.99339060  0.44127073    -0.91400
O272        O  0.82296034  0.84187097  0.41873295    -0.77400
O273        O  0.73478603  0.82278872  0.43621780    -0.86900
O274        O  0.78464942  0.91145314  0.41654326    -0.86600
O275        O  0.68912509  0.87081360  0.45387885    -0.73300
O276        O  0.73518950  0.95238939  0.43555533    -0.85500
Zr277      Zr  0.61804805  0.83275467  0.40467428     2.26400
Zr278      Zr  0.64915278  0.78670640  0.44397641     2.06300
Zr279      Zr  0.74342948  0.95444602  0.40680037     2.10000
Zr280      Zr  0.74420505  0.82671181  0.40762812     1.78800
O281        O  0.72203207  0.02045297  0.40571603    -0.94300
O282        O  0.73091260  0.74221203  0.41047576    -0.42100
O283        O  0.70432314  0.86991853  0.39740457    -0.78700
O284        O  0.65750981  0.78742604  0.41492412    -0.97400
O285        O  0.60825466  0.82930078  0.43351165    -0.90700
O286        O  0.65692962  0.91754106  0.41382396    -0.93600
C287        C  0.85373586  0.86880163  0.42986843     1.00200
C288        C  0.84863757  0.02721245  0.43068773     1.13100
C289        C  0.73998294  0.80891878  0.47270738     1.03900
O290        O  0.63598746  0.70218405  0.44615284    -0.95700
O291        O  0.56931596  0.72125275  0.43405205    -0.91500
O292        O  0.55426431  0.74542459  0.40957688    -0.84600
C293        C  0.54290813  0.71350420  0.42119034     1.10500
O294        O  0.68463520  0.97193255  0.46536936    -0.97700
Zr295      Zr  0.64866525  0.91350524  0.44276353     1.88900
O296        O  0.55287227  0.85474857  0.40879516    -0.74300
O297        O  0.59779132  0.77694427  0.46770386    -0.53600
O298        O  0.59610074  0.87565367  0.46659081    -0.98300
O299        O  0.64886899  0.99206467  0.43869113    -0.55500
O300        O  0.56647444  0.89249783  0.43338151    -0.74900
C301        C  0.54030816  0.87373373  0.42051642     0.97500
O302        O  0.56095541  0.78408482  0.38275934    -0.63700
O303        O  0.80610065  0.00154868  0.38600794    -0.58500
O304        O  0.64584106  0.86815545  0.37704924    -0.95200
O305        O  0.72055472  0.94028337  0.37859876    -0.93600
O306        O  0.80316150  0.86487075  0.38529995    -0.93900
O307        O  0.71934806  0.78097160  0.38208811    -0.92700
C308        C  0.68403644  0.90618320  0.37051447     1.16300
H309        H  0.81959415  0.92927543  0.41340474     0.32300
H310        H  0.64112725  0.75358558  0.41075111     0.43100
H311        H  0.64207315  0.93483286  0.40879525     0.36700
H312        H  0.68747697  0.87081323  0.46557120     0.33100
H313        H  0.75955094  0.74313390  0.40473961     0.24900
H314        H  0.56305165  0.76036354  0.46354976     0.30900
H315        H  0.57293164  0.88909061  0.46671963     0.36800
H316        H  0.80111292  0.89497012  0.38237437     0.31200
H317        H  0.81704034  0.03725823  0.38797222     0.30100
H318        H  0.71370488  0.02174170  0.39416425     0.31800
H319        H  0.62006067  0.98836894  0.44509772     0.30800
H320        H  0.68478020  0.77409073  0.38025246     0.34800
H321        H  0.55272149  0.80720433  0.37694106     0.27500
H322        H  0.83349839  0.95269148  0.47377196     0.31700
H323        H  0.65653754  0.97392977  0.47037515     0.34600
H324        H  0.83538610  0.99805153  0.38883389     0.27200
H325        H  0.58081731  0.77665267  0.37496711     0.40000
H326        H  0.64665914  0.69591687  0.43548895     0.30100
H327        H  0.73718642  0.73918399  0.42211397     0.37700
H328        H  0.63874387  0.99164702  0.42725306     0.29600
H329        H  0.59925342  0.75102144  0.47442246     0.29600
H330        H  0.77823223  0.93650591  0.47857064     0.29900
Zr331      Zr  0.89746420  0.78198547  0.55851000     2.17500
O332        O  0.94718000  0.81489469  0.53380699    -0.52500
O333        O  0.88436862  0.85231666  0.56329764    -0.75700
O334        O  0.84531982  0.77572470  0.53566575    -0.82400
O335        O  0.01066206  0.82731542  0.58491016    -0.84200
O336        O  0.77380453  0.70009667  0.53596809    -0.79800
O337        O  0.98320103  0.84881181  0.56238172    -0.91400
O338        O  0.83037865  0.83008297  0.58451150    -0.77400
O339        O  0.81233323  0.74049362  0.56711969    -0.86900
O340        O  0.89990647  0.79240307  0.58722197    -0.86600
O341        O  0.86250172  0.69617188  0.55008942    -0.73300
O342        O  0.94353230  0.74393968  0.56860035    -0.85500
Zr343      Zr  0.82392971  0.62565804  0.59931417     2.26400
Zr344      Zr  0.77794068  0.65461457  0.55970662     2.06300
Zr345      Zr  0.94377815  0.75250274  0.59738413     2.10000
Zr346      Zr  0.81473534  0.75059922  0.59568236     1.78800
O347        O  0.01147381  0.73429809  0.60080649    -0.94300
O348        O  0.73225919  0.74155661  0.59194789    -0.42100
O349        O  0.85884289  0.71199764  0.60641902    -0.78700
O350        O  0.77768428  0.66375657  0.58866772    -0.97400
O351        O  0.82181718  0.61539463  0.57051313    -0.90700
O352        O  0.90910694  0.66610415  0.59041510    -0.93600
C353        C  0.85714091  0.86048029  0.57320029     1.00200
C354        C  0.01718725  0.85628831  0.57281392     1.13100
C355        C  0.80262052  0.74366925  0.52978674     1.03900
O356        O  0.69472807  0.64433671  0.55754439    -0.95700
O357        O  0.71209712  0.57623975  0.57061856    -0.91500
O358        O  0.73656057  0.56119557  0.59500761    -0.84600
C359        C  0.70426293  0.55006616  0.58357806     1.10500
O360        O  0.95389180  0.68510251  0.53620632    -0.97700
Zr361      Zr  0.90630856  0.65739826  0.56148887     1.88900
O362        O  0.84896394  0.56247425  0.59569382    -0.74300
O363        O  0.76108497  0.59599785  0.53753709    -0.53600
O364        O  0.86621210  0.59510206  0.54013270    -0.98300
O365        O  0.99013488  0.66939860  0.56479193    -0.55500
O366        O  0.89396784  0.57971993  0.57240537    -0.74900
C367        C  0.87266565  0.55241063  0.58487753     0.97500
O368        O  0.77552132  0.56638707  0.62086730    -0.63700
O369        O  0.98762649  0.81961012  0.61711357    -0.58500
O370        O  0.85698024  0.65362761  0.62703217    -0.95200
O371        O  0.92881076  0.72869179  0.62560006    -0.93600
O372        O  0.84979325  0.80503419  0.61918909    -0.93900
O373        O  0.76191248  0.72046436  0.61977469    -0.92700
C374        C  0.89451965  0.69193553  0.63362423     1.16300
H375        H  0.91699803  0.82731490  0.59027145     0.32300
H376        H  0.74390761  0.64715863  0.59280730     0.43100
H377        H  0.92746946  0.65213406  0.59564574     0.36700
H378        H  0.86295021  0.69432673  0.53835974     0.33100
H379        H  0.73263785  0.76823343  0.59873938     0.24900
H380        H  0.76191819  0.56730658  0.54264751     0.30900
H381        H  0.88577108  0.57768894  0.53946247     0.36800
H382        H  0.87677951  0.79908877  0.62304553     0.31200
H383        H  0.02338630  0.82947809  0.61619833     0.30100
H384        H  0.02307832  0.74438561  0.61212090     0.31800
H385        H  0.99160752  0.65971729  0.57617323     0.30800
H386        H  0.77793352  0.70632208  0.62677497     0.34800
H387        H  0.79933184  0.55999905  0.62704074     0.27500
H388        H  0.94038130  0.84128433  0.52985903     0.31700
H389        H  0.96532765  0.66086083  0.53401458     0.34600
H390        H  0.98565673  0.84860121  0.61281580     0.27200
H391        H  0.76554287  0.58476986  0.62844478     0.40000
H392        H  0.69517683  0.66938391  0.56514574     0.30100
H393        H  0.73229737  0.75263056  0.58063781     0.37700
H394        H  0.01266860  0.70617216  0.56454555     0.29600
H395        H  0.72533933  0.58282941  0.53491755     0.29600
H396        H  0.93127218  0.78763652  0.52570544     0.29900
Zr397      Zr  0.10396879  0.57957749  0.11219884     2.17500
O398        O  0.13522515  0.62923382  0.13692973    -0.52500
O399        O  0.17423203  0.56650234  0.10731093    -0.75700
O400        O  0.09815798  0.52588632  0.13468063    -0.82400
O401        O  0.15102255  0.69109329  0.08437099    -0.84200
O402        O  0.02325093  0.45358599  0.13400589    -0.79800
O403        O  0.17176633  0.66462682  0.10732847    -0.91400
O404        O  0.15208167  0.51253798  0.08610821    -0.77400
O405        O  0.06194938  0.49424737  0.10388634    -0.86900
O406        O  0.11360007  0.58061698  0.08353071    -0.86600
O407        O  0.01835843  0.54529368  0.12060295    -0.73300
O408        O  0.06649824  0.62577383  0.10168361    -0.85500
Zr409      Zr  0.94779491  0.50555639  0.07142225     2.26400
Zr410      Zr  0.97628471  0.46032503  0.11132704     2.06300
Zr411      Zr  0.07466279  0.62466691  0.07290675     2.10000
Zr412      Zr  0.07185716  0.49523978  0.07540238     1.78800
O413        O  0.05851192  0.69384211  0.06957399    -0.94300
O414        O  0.05968282  0.41225558  0.08111028    -0.42100
O415        O  0.03377364  0.53946338  0.06443355    -0.78700
O416        O  0.98494824  0.45861953  0.08232099    -0.97400
O417        O  0.93758604  0.50433584  0.10022897    -0.90700
O418        O  0.98856779  0.59096567  0.07992659    -0.93600
C419        C  0.18265644  0.53972351  0.09728075     1.00200
C420        C  0.18010557  0.69777360  0.09639547     1.13100
C421        C  0.06670487  0.48216959  0.14016259     1.03900
O422        O  0.96200387  0.37576535  0.11509952    -0.95700
O423        O  0.89653070  0.39510741  0.10106607    -0.91500
O424        O  0.88250455  0.41911180  0.07644819    -0.84600
C425        C  0.87047810  0.38735495  0.08810233     1.10500
O426        O  0.01234218  0.64382990  0.13256819    -0.97700
Zr427      Zr  0.98015178  0.58928093  0.10887684     1.88900
O428        O  0.88308760  0.52839024  0.07544408    -0.74300
O429        O  0.92448247  0.45208404  0.13477143    -0.53600
O430        O  0.92346302  0.55245120  0.13189503    -0.98300
O431        O  0.98786410  0.67106213  0.10413524    -0.55500
O432        O  0.89967225  0.57164493  0.09904836    -0.74900
C433        C  0.87207978  0.55022494  0.08667357     0.97500
O434        O  0.89628699  0.46559202  0.04751413    -0.63700
O435        O  0.14033829  0.66204998  0.05235283    -0.58500
O436        O  0.97609514  0.53737981  0.04354089    -0.95200
O437        O  0.05066955  0.60985876  0.04479299    -0.93600
O438        O  0.12995534  0.53021712  0.05270171    -0.93900
O439        O  0.04306173  0.44349728  0.05109068    -0.92700
C440        C  0.01430151  0.57506804  0.03684796     1.16300
H441        H  0.14842548  0.59745836  0.08039944     0.32300
H442        H  0.96792787  0.42457782  0.07835145     0.43100
H443        H  0.97454178  0.60889670  0.07460299     0.36700
H444        H  0.01657717  0.54607960  0.13230583     0.33100
H445        H  0.08872686  0.41226998  0.07601004     0.24900
H446        H  0.88978263  0.43477579  0.13057424     0.30900
H447        H  0.90154935  0.56734915  0.13156162     0.36800
H448        H  0.11914682  0.55115643  0.04675917     0.31200
H449        H  0.14979689  0.69781689  0.05185386     0.30100
H450        H  0.05040571  0.69332452  0.05790238     0.31800
H451        H  0.96051870  0.67059067  0.11056368     0.30800
H452        H  0.02125322  0.45393814  0.04554434     0.34800
H453        H  0.89735297  0.43432856  0.04585040     0.27500
H454        H  0.16176248  0.62285944  0.14096802     0.31700
H455        H  0.98474612  0.64877332  0.13642523     0.34600
H456        H  0.16978370  0.66195605  0.05708841     0.27200
H457        H  0.86143556  0.45446203  0.05083893     0.40000
H458        H  0.97452791  0.36852143  0.10498138     0.30100
H459        H  0.06560875  0.41222373  0.09294226     0.37700
H460        H  0.97760508  0.67053824  0.09270796     0.29600
H461        H  0.92621186  0.42692139  0.14182569     0.29600
H462        H  0.10772536  0.61265789  0.14493565     0.29900
Zr463      Zr  0.22806303  0.45395512  0.22478279     2.17500
O464        O  0.27875255  0.48697238  0.20028208    -0.52500
O465        O  0.21538270  0.52426515  0.22966319    -0.75700
O466        O  0.17543576  0.44702023  0.20184199    -0.82400
O467        O  0.34047618  0.50045037  0.25157576    -0.84200
O468        O  0.10084283  0.37458312  0.20359050    -0.79800
O469        O  0.31381394  0.52113242  0.22868360    -0.91400
O470        O  0.16316517  0.50288309  0.25134265    -0.77400
O471        O  0.14368056  0.41427172  0.23400244    -0.86900
O472        O  0.23183443  0.46419833  0.25353441    -0.86600
O473        O  0.19090231  0.36794417  0.21648568    -0.73300
O474        O  0.27315555  0.41465011  0.23463608    -0.85500
Zr475      Zr  0.15364580  0.29783082  0.26588498     2.26400
Zr476      Zr  0.10697458  0.32818841  0.22662348     2.06300
Zr477      Zr  0.27494115  0.42331943  0.26338186     2.10000
Zr478      Zr  0.14726447  0.42386394  0.26257132     1.78800
O479        O  0.34277520  0.40463959  0.26415974    -0.94300
O480        O  0.06361631  0.41137840  0.25849099    -0.42100
O481        O  0.19067195  0.38431413  0.27295010    -0.78700
O482        O  0.10826904  0.33708530  0.25558961    -0.97400
O483        O  0.14988632  0.28772516  0.23706685    -0.90700
O484        O  0.23826714  0.33663363  0.25655972    -0.93600
C485        C  0.18935709  0.53293737  0.23990633     1.00200
C486        C  0.34724417  0.52938253  0.23943869     1.13100
C487        C  0.13102328  0.41656370  0.19672358     1.03900
O488        O  0.02387356  0.31864598  0.22504842    -0.95700
O489        O  0.04195287  0.24925251  0.23746013    -0.91500
O490        O  0.06672135  0.23366435  0.26171016    -0.84600
C491        C  0.03442071  0.22281147  0.25034210     1.10500
O492        O  0.28790498  0.36247852  0.20388102    -0.97700
Zr493      Zr  0.23384328  0.32797963  0.22762786     1.88900
O494        O  0.17510374  0.23209892  0.26206913    -0.74300
O495        O  0.09220414  0.27138494  0.20406647    -0.53600
O496        O  0.19529735  0.27037359  0.20496836    -0.98300
O497        O  0.31403436  0.33163538  0.23114678    -0.55500
O498        O  0.21472203  0.24720908  0.23776374    -0.74900
C499        C  0.19510620  0.22032675  0.25044884     0.97500
O500        O  0.10059930  0.24169691  0.28740590    -0.63700
O501        O  0.31998633  0.48562742  0.28439098    -0.58500
O502        O  0.18902889  0.32452130  0.29341199    -0.95200
O503        O  0.26086132  0.39952332  0.29158191    -0.93600
O504        O  0.18372507  0.48279918  0.28495226    -0.93900
O505        O  0.09893675  0.39565174  0.28764087    -0.92700
C506        C  0.22706519  0.36290980  0.29978311     1.16300
H507        H  0.24950159  0.49911294  0.25659548     0.32300
H508        H  0.07466205  0.32084796  0.25987108     0.43100
H509        H  0.25609891  0.32187312  0.26164356     0.36700
H510        H  0.19086757  0.36601500  0.20475352     0.33100
H511        H  0.06381025  0.43957991  0.26428969     0.24900
H512        H  0.05675747  0.25844609  0.20108804     0.30900
H513        H  0.21204852  0.25012651  0.20471344     0.36800
H514        H  0.20645508  0.47330132  0.29036304     0.31200
H515        H  0.35565196  0.49569478  0.28298387     0.30100
H516        H  0.35951247  0.41809045  0.27471849     0.31800
H517        H  0.31153261  0.30389173  0.22441157     0.30800
H518        H  0.09236976  0.36101065  0.28921273     0.34800
H519        H  0.12153370  0.23099823  0.29337942     0.27500
H520        H  0.27047700  0.51183525  0.19584185     0.31700
H521        H  0.28918353  0.33412090  0.19875946     0.34600
H522        H  0.31785180  0.51546385  0.28117113     0.27200
H523        H  0.09481467  0.26288884  0.29512800     0.40000
H524        H  0.01674286  0.32522106  0.23622357     0.30100
H525        H  0.06243910  0.41881642  0.24683418     0.37700
H526        H  0.31392924  0.32060457  0.24246317     0.29600
H527        H  0.11144070  0.29324132  0.19484352     0.29600
H528        H  0.26434775  0.45894679  0.19241894     0.29900
Zr529      Zr  0.61484838  0.83365423  0.22531823     2.17500
O530        O  0.57884869  0.85053140  0.20144838    -0.52500
O531        O  0.54559506  0.74950129  0.22980053    -0.75700
O532        O  0.62189408  0.79004219  0.20185178    -0.82400
O533        O  0.56950226  0.90076365  0.25231953    -0.84200
O534        O  0.69673236  0.79267715  0.20234952    -0.79800
O535        O  0.54809834  0.85224930  0.22974078    -0.91400
O536        O  0.56717677  0.71809278  0.25128554    -0.77400
O537        O  0.65610336  0.78971179  0.23370237    -0.86900
O538        O  0.60483026  0.82461455  0.25399836    -0.86600
O539        O  0.70034979  0.88472511  0.21685677    -0.73300
O540        O  0.65290304  0.91734292  0.23574169    -0.85500
Zr541      Zr  0.77141908  0.91553356  0.26603423     2.26400
Zr542      Zr  0.74169768  0.84128190  0.22620617     2.06300
Zr543      Zr  0.64421444  0.90783482  0.26446248     2.10000
Zr544      Zr  0.64674143  0.78115495  0.26224668     1.78800
O545        O  0.66116820  0.99334568  0.26802108    -0.94300
O546        O  0.65659814  0.70878731  0.25701616    -0.42100
O547        O  0.68520674  0.86356806  0.27313621    -0.78700
O548        O  0.73355835  0.83134602  0.25524858    -0.97400
O549        O  0.78114343  0.92414246  0.23723489    -0.90700
O550        O  0.73043276  0.96003511  0.25741536    -0.93600
C551        C  0.53717328  0.71428388  0.23986171     1.00200
C552        C  0.54045183  0.87833609  0.24028150     1.13100
C553        C  0.65367102  0.77889608  0.19601537     1.03900
O554        O  0.74833783  0.76605096  0.22392638    -0.95700
O555        O  0.82142289  0.85562319  0.23605499    -0.91500
O556        O  0.83568133  0.89261734  0.26083234    -0.84600
C557        C  0.84747645  0.87319830  0.24902670     1.10500
O558        O  0.70590006  0.98516222  0.20417065    -0.97700
Zr559      Zr  0.73916316  0.96688798  0.22848822     1.88900
O560        O  0.83548322  0.00353517  0.26212547    -0.74300
O561        O  0.79900754  0.88552104  0.20390225    -0.53600
O562        O  0.79866021  0.98643142  0.20638236    -0.98300
O563        O  0.73138076  0.04135367  0.23165343    -0.55500
O564        O  0.81769136  0.03165779  0.23900797    -0.74900
C565        C  0.84540590  0.03747266  0.25132589     0.97500
O566        O  0.82505544  0.92897291  0.28954234    -0.63700
O567        O  0.57630309  0.88010388  0.28415515    -0.58500
O568        O  0.74411693  0.92025019  0.29389722    -0.95200
O569        O  0.66830508  0.91546866  0.29258208    -0.93600
O570        O  0.58976671  0.75961444  0.28519664    -0.93900
O571        O  0.67687364  0.75665564  0.28594461    -0.92700
C572        C  0.70532212  0.91842046  0.30053841     1.16300
H573        H  0.56992421  0.80654251  0.25708603     0.32300
H574        H  0.75038051  0.81412206  0.25923968     0.43100
H575        H  0.74439755  0.99216944  0.26266138     0.36700
H576        H  0.70212912  0.88747587  0.20516323     0.33100
H577        H  0.62491718  0.67957180  0.26076906     0.24900
H578        H  0.81468522  0.86508971  0.20137670     0.30900
H579        H  0.81662508  0.02341796  0.20546252     0.36800
H580        H  0.57259342  0.72260482  0.28589026     0.31200
H581        H  0.56633399  0.90604213  0.28395495     0.30100
H582        H  0.64784548  0.00046189  0.25803724     0.31800
H583        H  0.76097950  0.06843357  0.22603519     0.30800
H584        H  0.70278908  0.78874928  0.29069327     0.34800
H585        H  0.82203746  0.89605074  0.29190251     0.27500
H586        H  0.55427727  0.81715537  0.19712382     0.31700
H587        H  0.73264894  0.01810979  0.20019707     0.34600
H588        H  0.54762503  0.84996923  0.27935740     0.27200
H589        H  0.85984141  0.95042037  0.28566441     0.40000
H590        H  0.74867549  0.75550818  0.23528397     0.30100
H591        H  0.65552724  0.70557622  0.24502843     0.37700
H592        H  0.73777194  0.05010742  0.24331608     0.29600
H593        H  0.77736308  0.88090529  0.19442064     0.29600
H594        H  0.60613659  0.86489720  0.19331048     0.29900
Zr595      Zr  0.49158563  0.58771179  0.11174419     2.17500
O596        O  0.44224727  0.56734974  0.13664727    -0.52500
O597        O  0.50624213  0.67147916  0.10647784    -0.75700
O598        O  0.54469067  0.63609171  0.13411422    -0.82400
O599        O  0.37986996  0.52413907  0.08512503    -0.84200
O600        O  0.61723030  0.63421077  0.13316246    -0.79800
O601        O  0.40714410  0.57218056  0.10782543    -0.91400
O602        O  0.55844179  0.70152341  0.08473205    -0.77400
O603        O  0.57592102  0.63118323  0.10250290    -0.86900
O604        O  0.48862550  0.59465617  0.08300805    -0.86600
O605        O  0.52667619  0.53728972  0.12027559    -0.73300
O606        O  0.44501528  0.50318974  0.10194806    -0.85500
Zr607      Zr  0.56321729  0.50291815  0.07109416     2.26400
Zr608      Zr  0.61067109  0.58065341  0.11030501     2.06300
Zr609      Zr  0.44420692  0.51101062  0.07316496     2.10000
Zr610      Zr  0.57295198  0.63720975  0.07387163     1.78800
O611        O  0.37419676  0.42576409  0.07140643    -0.94300
O612        O  0.65639010  0.70928619  0.07745044    -0.42100
O613        O  0.52855902  0.55420469  0.06342451    -0.78700
O614        O  0.61017762  0.58785000  0.08119278    -0.97400
O615        O  0.56650723  0.49685547  0.09998591    -0.90700
O616        O  0.47847287  0.45907117  0.08038187    -0.93600
C617        C  0.53267149  0.70598527  0.09614089     1.00200
C618        C  0.37362366  0.54705848  0.09710986     1.13100
C619        C  0.58848804  0.64873012  0.13947415     1.03900
O620        O  0.69328122  0.65519248  0.11147533    -0.95700
O621        O  0.67421877  0.56392958  0.10023438    -0.91500
O622        O  0.64963625  0.52350263  0.07601891    -0.84600
C623        C  0.68161090  0.54434504  0.08755766     1.10500
O624        O  0.43400179  0.43610359  0.13432905    -0.97700
Zr625      Zr  0.48243577  0.45411482  0.10929347     1.88900
O626        O  0.53874206  0.41499633  0.07494979    -0.74300
O627        O  0.62679248  0.54218458  0.13367895    -0.53600
O628        O  0.52337543  0.43439913  0.13105786    -0.98300
O629        O  0.40038633  0.37882434  0.10693659    -0.55500
O630        O  0.49633337  0.38931753  0.09874777    -0.74900
C631        C  0.51674909  0.38236417  0.08624888     0.97500
O632        O  0.61365509  0.49450005  0.04981517    -0.63700
O633        O  0.40416100  0.53674895  0.05275894    -0.58500
O634        O  0.52691070  0.49317004  0.04354203    -0.95200
O635        O  0.45510597  0.49623774  0.04518128    -0.93600
O636        O  0.53479978  0.65814016  0.05156020    -0.93900
O637        O  0.62174551  0.65910740  0.04889060    -0.92700
C638        C  0.48840488  0.49246246  0.03706819     1.16300
H639        H  0.47163413  0.61252472  0.07991082     0.32300
H640        H  0.64386087  0.60446208  0.07696246     0.43100
H641        H  0.45971672  0.42648756  0.07534947     0.36700
H642        H  0.52654803  0.53551291  0.13201512     0.33100
H643        H  0.65669150  0.73594137  0.07062360     0.24900
H644        H  0.66018563  0.56808491  0.13758261     0.30900
H645        H  0.50483782  0.39735616  0.13178233     0.36800
H646        H  0.50561202  0.62573281  0.04833602     0.31200
H647        H  0.36821149  0.51106299  0.05319139     0.30100
H648        H  0.35731563  0.41978015  0.08208037     0.31800
H649        H  0.40473650  0.35157109  0.11158315     0.30800
H650        H  0.62532019  0.62957449  0.04653009     0.34800
H651        H  0.59094097  0.46318847  0.04394553     0.27500
H652        H  0.44973389  0.59995125  0.14131873     0.31700
H653        H  0.42540689  0.40177662  0.13760116     0.34600
H654        H  0.40600741  0.56762910  0.05703546     0.27200
H655        H  0.62151147  0.52184569  0.04195495     0.40000
H656        H  0.70265535  0.66501911  0.09998490     0.30100
H657        H  0.65673414  0.72045339  0.08875083     0.37700
H658        H  0.39562344  0.37136899  0.09516578     0.29600
H659        H  0.60340412  0.54053992  0.14220618     0.29600
H660        H  0.45793916  0.55421538  0.14421231     0.29900
Zr661      Zr  0.48285208  0.96457377  0.11066578     2.17500
O662        O  0.50121141  0.93296730  0.13539469    -0.52500
O663        O  0.39955813  0.89524528  0.10573877    -0.75700
O664        O  0.43484929  0.96805283  0.13354809    -0.82400
O665        O  0.55073724  0.91989050  0.08348862    -0.84200
O666        O  0.43522019  0.04187326  0.13258218    -0.79800
O667        O  0.50085802  0.89761370  0.10584886    -0.91400
O668        O  0.36939794  0.91694651  0.08392236    -0.77400
O669        O  0.43864421  0.00511748  0.10189306    -0.86900
O670        O  0.47645045  0.95615306  0.08183881    -0.86600
O671        O  0.53216673  0.04961603  0.11958522    -0.73300
O672        O  0.56723543  0.00370380  0.10073556    -0.85500
Zr673      Zr  0.56521908  0.12203282  0.07044306     2.26400
Zr674      Zr  0.48844408  0.09030604  0.10991447     2.06300
Zr675      Zr  0.56038409  0.99637085  0.07185903     2.10000
Zr676      Zr  0.43243832  0.99718181  0.07328652     1.78800
O677        O  0.64396567  0.00730292  0.06975103    -0.94300
O678        O  0.36094877  0.00834420  0.07848836    -0.42100
O679        O  0.51532451  0.03611667  0.06272878    -0.78700
O680        O  0.48075739  0.08358166  0.08084631    -0.97400
O681        O  0.57156887  0.13062410  0.09930119    -0.90700
O682        O  0.61051474  0.08235107  0.07947145    -0.93600
C683        C  0.36508427  0.88686832  0.09543227     1.00200
C684        C  0.52718029  0.89019903  0.09533046     1.13100
C685        C  0.42177234  0.99887376  0.13898637     1.03900
O686        O  0.41538917  0.10050870  0.11216547    -0.95700
O687        O  0.50302918  0.17027165  0.10002917    -0.91500
O688        O  0.54305685  0.18662496  0.07569562    -0.84600
C689        C  0.52224981  0.19744912  0.08732329     1.10500
O690        O  0.63797305  0.05683863  0.13183501    -0.97700
Zr691      Zr  0.61497851  0.08977704  0.10842090     1.88900
O692        O  0.65344006  0.18571582  0.07400962    -0.74300
O693        O  0.53179011  0.14418363  0.13297787    -0.53600
O694        O  0.63060518  0.14469083  0.13163843    -0.98300
O695        O  0.69130765  0.08581531  0.10468727    -0.55500
O696        O  0.67596285  0.17164311  0.09883170    -0.74900
C697        C  0.68429340  0.19803290  0.08595080     0.97500
O698        O  0.57870764  0.18164461  0.04876076    -0.63700
O699        O  0.52813981  0.93164685  0.05095219    -0.58500
O700        O  0.56338434  0.08898897  0.04283149    -0.95200
O701        O  0.58647093  0.02995883  0.04475357    -0.93600
O702        O  0.40723469  0.94047517  0.05018565    -0.93900
O703        O  0.41265031  0.02867499  0.04887488    -0.92700
C704        C  0.57559995  0.05837147  0.03644928     1.16300
H705        H  0.45878850  0.92139080  0.07869365     0.32300
H706        H  0.46366097  0.10039805  0.07675349     0.43100
H707        H  0.64314188  0.09694574  0.07440690     0.36700
H708        H  0.53393187  0.05072259  0.13133366     0.33100
H709        H  0.33273641  0.98019766  0.07273570     0.24900
H710        H  0.51395572  0.16284904  0.13499816     0.30900
H711        H  0.66741353  0.16655478  0.13203703     0.36800
H712        H  0.43854008  0.94216290  0.04647697     0.31200
H713        H  0.55078578  0.91758118  0.05107218     0.30100
H714        H  0.63869534  0.97535348  0.06515778     0.31800
H715        H  0.71832003  0.11762531  0.10924456     0.30800
H716        H  0.44499226  0.04774161  0.04308825     0.34800
H717        H  0.60770490  0.18534548  0.04246115     0.27500
H718        H  0.46829958  0.90717363  0.13970482     0.31700
H719        H  0.66774900  0.08574689  0.13669467     0.34600
H720        H  0.49601473  0.90439473  0.05524962     0.27200
H721        H  0.54964838  0.16421771  0.04137984     0.40000
H722        H  0.40255079  0.09672773  0.10091643     0.30100
H723        H  0.35323209  0.00029384  0.09016392     0.37700
H724        H  0.69770623  0.08902185  0.09283773     0.29600
H725        H  0.52309173  0.12127119  0.14240501     0.29600
H726        H  0.51351035  0.96092357  0.14326610     0.29900
Zr727      Zr  0.23692534  0.84113630  0.22479962     2.17500
O728        O  0.22004096  0.79205670  0.19995697    -0.52500
O729        O  0.32156002  0.85757264  0.22952412    -0.75700
O730        O  0.28222604  0.89320512  0.20184959    -0.82400
O731        O  0.17291263  0.72955367  0.25166555    -0.84200
O732        O  0.28024031  0.96579998  0.20253267    -0.79800
O733        O  0.22197813  0.75701906  0.22919519    -0.91400
O734        O  0.35150080  0.90933405  0.25130794    -0.77400
O735        O  0.28025850  0.92573030  0.23374112    -0.86900
O736        O  0.24320200  0.83780811  0.25358206    -0.86600
O737        O  0.18656558  0.87629330  0.21623422    -0.73300
O738        O  0.15229818  0.79439778  0.23451379    -0.85500
Zr739      Zr  0.15257673  0.91314529  0.26545594     2.26400
Zr740      Zr  0.22963413  0.96065520  0.22611171     2.06300
Zr741      Zr  0.15901669  0.79339816  0.26333438     2.10000
Zr742      Zr  0.28661077  0.92285839  0.26229868     1.78800
O743        O  0.07232382  0.72615245  0.26532371    -0.94300
O744        O  0.35743438  0.00673970  0.25803330    -0.42100
O745        O  0.20354356  0.87788431  0.27245664    -0.78700
O746        O  0.23734151  0.96045922  0.25519751    -0.97400
O747        O  0.14616271  0.91627139  0.23660201    -0.90700
O748        O  0.10777330  0.82830245  0.25623734    -0.93600
C749        C  0.35620988  0.88410929  0.23975952     1.00200
C750        C  0.19642175  0.72344830  0.23987839     1.13100
C751        C  0.29408431  0.93654230  0.19618540     1.03900
O752        O  0.30552948  0.04210226  0.22436005    -0.95700
O753        O  0.21364098  0.02487716  0.23635278    -0.91500
O754        O  0.17265064  0.99939701  0.26046464    -0.84600
C755        C  0.19343606  0.03169432  0.24900133     1.10500
O756        O  0.08111661  0.77758374  0.20355431    -0.97700
Zr757      Zr  0.10354377  0.83212591  0.22725826     1.88900
O758        O  0.06496347  0.88951923  0.26124988    -0.74300
O759        O  0.18958182  0.97838347  0.20361484    -0.53600
O760        O  0.08898951  0.87378271  0.20442753    -0.98300
O761        O  0.02862375  0.75003096  0.23034542    -0.55500
O762        O  0.04008948  0.84907931  0.23709472    -0.74900
C763        C  0.03289924  0.86884730  0.24973124     0.97500
O764        O  0.14080037  0.95258897  0.28946279    -0.63700
O765        O  0.17320907  0.74565553  0.28424671    -0.58500
O766        O  0.14847060  0.88119649  0.29334525    -0.95200
O767        O  0.15308737  0.81013908  0.29156505    -0.93600
O768        O  0.31082879  0.88752458  0.28465877    -0.93900
O769        O  0.30559866  0.97305430  0.28686861    -0.92700
C770        C  0.15046030  0.84396098  0.29976961     1.16300
H771        H  0.26100104  0.82077678  0.25673699     0.32300
H772        H  0.25400864  0.99420463  0.25939958     0.43100
H773        H  0.07517982  0.81008357  0.26127413     0.36700
H774        H  0.18471193  0.87615041  0.20449728     0.33100
H775        H  0.38578643  0.00649692  0.26357733     0.24900
H776        H  0.21449601  0.01279658  0.20015176     0.30900
H777        H  0.05243896  0.86063019  0.20436871     0.36800
H778        H  0.27942779  0.86658253  0.29075495     0.31200
H779        H  0.14895711  0.70997710  0.28202026     0.30100
H780        H  0.07357380  0.69514216  0.26332345     0.31800
H781        H  0.00127430  0.75369227  0.22548323     0.30800
H782        H  0.27245482  0.96363956  0.29152592     0.34800
H783        H  0.17338829  0.98334731  0.29134924     0.27500
H784        H  0.25321736  0.79941963  0.19586815     0.31700
H785        H  0.05174998  0.77736813  0.19862153     0.34600
H786        H  0.20640213  0.74968175  0.28176324     0.27200
H787        H  0.11778549  0.96460113  0.28610845     0.40000
H788        H  0.31572063  0.05195630  0.23578455     0.30100
H789        H  0.36530163  0.00812707  0.24631019     0.37700
H790        H  0.02117222  0.74624172  0.24212768     0.29600
H791        H  0.18891609  0.95677149  0.19462555     0.29600
H792        H  0.20812624  0.80781412  0.19195874     0.29900
Zr793      Zr  0.81215844  0.61901242  0.77840349     2.17500
O794        O  0.83170170  0.58707292  0.80280049    -0.52500
O795        O  0.72828132  0.55022048  0.77379259    -0.75700
O796        O  0.76682931  0.62497157  0.80152861    -0.82400
O797        O  0.87632566  0.57223655  0.75119166    -0.84200
O798        O  0.77037687  0.70036508  0.80121980    -0.79800
O799        O  0.82720173  0.55002124  0.77366921    -0.91400
O800        O  0.69708747  0.57335373  0.75261886    -0.77400
O801        O  0.76819874  0.65997916  0.76968480    -0.86900
O802        O  0.80486449  0.60964198  0.74966542    -0.86600
O803        O  0.86275517  0.70452630  0.78688327    -0.73300
O804        O  0.89617340  0.65666405  0.76830279    -0.85500
Zr805      Zr  0.89619883  0.77647156  0.73804027     2.26400
Zr806      Zr  0.81921121  0.74558256  0.77730590     2.06300
Zr807      Zr  0.88840955  0.64933466  0.73952453     2.10000
Zr808      Zr  0.76170824  0.65141529  0.74107145     1.78800
O809        O  0.97403293  0.66637059  0.73642992    -0.94300
O810        O  0.69288028  0.66756281  0.74488747    -0.42100
O811        O  0.84466411  0.69045423  0.73067141    -0.78700
O812        O  0.81140199  0.73821943  0.74819265    -0.97400
O813        O  0.90288221  0.78496293  0.76688691    -0.90700
O814        O  0.94034135  0.73541145  0.74677275    -0.93600
C815        C  0.69309444  0.54276476  0.76390900     1.00200
C816        C  0.85291878  0.54240085  0.76297791     1.13100
C817        C  0.75622179  0.65699569  0.80748951     1.03900
O818        O  0.74382804  0.75209271  0.77850701    -0.95700
O819        O  0.83266035  0.82502802  0.76722507    -0.91500
O820        O  0.87356564  0.84099770  0.74307475    -0.84600
C821        C  0.85203692  0.85184974  0.75446481     1.10500
O822        O  0.96385925  0.70626561  0.79920525    -0.97700
Zr823      Zr  0.94558502  0.74281582  0.77569468     1.88900
O824        O  0.98311920  0.84192255  0.74274242    -0.74300
O825        O  0.85900610  0.80181411  0.80016228    -0.53600
O826        O  0.96725996  0.79947884  0.79874211    -0.98300
O827        O  0.01808825  0.73260980  0.77108018    -0.55500
O828        O  0.00978583  0.82349164  0.76605896    -0.74900
C829        C  0.01606301  0.85203985  0.75388037     0.97500
O830        O  0.91010459  0.82765326  0.71383500    -0.63700
O831        O  0.86377395  0.58385939  0.71908098    -0.58500
O832        O  0.90302348  0.75036335  0.71021591    -0.95200
O833        O  0.89812440  0.67444188  0.71154350    -0.93600
O834        O  0.73804994  0.59170097  0.71883597    -0.93900
O835        O  0.73828821  0.67671684  0.71602612    -0.92700
C836        C  0.90167791  0.71176124  0.70358864     1.16300
H837        H  0.78689576  0.57477739  0.74657920     0.32300
H838        H  0.79456835  0.75516085  0.74399627     0.43100
H839        H  0.97278672  0.74986632  0.74159386     0.36700
H840        H  0.86490639  0.70621223  0.79862438     0.33100
H841        H  0.66420440  0.63967133  0.73921429     0.24900
H842        H  0.88276248  0.83448447  0.79516622     0.30900
H843        H  0.96404283  0.82793709  0.79462374     0.36800
H844        H  0.76787420  0.58831041  0.71692955     0.31200
H845        H  0.88745571  0.57121982  0.72024612     0.30100
H846        H  0.97518215  0.63943779  0.74265200     0.31800
H847        H  0.04459945  0.75769241  0.77821099     0.30800
H848        H  0.77044705  0.69870515  0.71046068     0.34800
H849        H  0.87805246  0.82676301  0.71182421     0.27500
H850        H  0.79896719  0.56097512  0.80712775     0.31700
H851        H  0.99491443  0.73359352  0.80403936     0.34600
H852        H  0.83112940  0.55591572  0.72277893     0.27200
H853        H  0.93368726  0.86251061  0.71721933     0.40000
H854        H  0.73415183  0.75197992  0.76702177     0.30100
H855        H  0.68432881  0.66084969  0.75656522     0.37700
H856        H  0.02976492  0.74531961  0.75994775     0.29600
H857        H  0.83235846  0.80694380  0.80483205     0.29600
H858        H  0.84398704  0.61475724  0.81077276     0.29900
Zr859      Zr  0.56415282  0.49348420  0.89203208     2.17500
O860        O  0.54604627  0.44225650  0.86769099    -0.52500
O861        O  0.64883330  0.51051168  0.89678083    -0.75700
O862        O  0.61196583  0.54494308  0.86914011    -0.82400
O863        O  0.50049163  0.38275736  0.91959125    -0.84200
O864        O  0.61304489  0.61899696  0.87072868    -0.79800
O865        O  0.54933736  0.40958338  0.89705461    -0.91400
O866        O  0.67894688  0.56258799  0.91848291    -0.77400
O867        O  0.60766467  0.57844277  0.90067571    -0.86900
O868        O  0.57054880  0.49092174  0.92082374    -0.86600
O869        O  0.51335250  0.52795228  0.88315564    -0.73300
O870        O  0.47962660  0.44743499  0.90197002    -0.85500
Zr871      Zr  0.48022246  0.56675605  0.93223542     2.26400
Zr872      Zr  0.55659748  0.61245337  0.89260377     2.06300
Zr873      Zr  0.48657681  0.44695370  0.93077841     2.10000
Zr874      Zr  0.61401106  0.57615606  0.92927555     1.78800
O875        O  0.39981279  0.37948773  0.93229523    -0.94300
O876        O  0.68431389  0.66065199  0.92542047    -0.42100
O877        O  0.53108478  0.53171157  0.93955636    -0.78700
O878        O  0.56472478  0.61320515  0.92170406    -0.97400
O879        O  0.47345405  0.56918496  0.90334990    -0.90700
O880        O  0.43504389  0.48144637  0.92345429    -0.93600
C881        C  0.68355771  0.53730410  0.90694489     1.00200
C882        C  0.52379106  0.37629393  0.90782893     1.13100
C883        C  0.62642859  0.58967706  0.86417300     1.03900
O884        O  0.62591581  0.69765642  0.88940176    -0.95700
O885        O  0.54061670  0.67723432  0.90224182    -0.91500
O886        O  0.50102821  0.65294818  0.92663056    -0.84600
C887        C  0.52152119  0.68483320  0.91502676     1.10500
O888        O  0.41406165  0.43335786  0.87020194    -0.97700
Zr889      Zr  0.43052448  0.48467822  0.89445496     1.88900
O890        O  0.39323234  0.54566128  0.92808504    -0.74300
O891        O  0.51547523  0.62006420  0.86837647    -0.53600
O892        O  0.41134986  0.52450555  0.87215454    -0.98300
O893        O  0.35555228  0.40239799  0.89677215    -0.55500
O894        O  0.36712401  0.50179163  0.90455193    -0.74900
C895        C  0.36063780  0.52362911  0.91678405     0.97500
O896        O  0.47722909  0.61047270  0.95652209    -0.63700
O897        O  0.50141809  0.40058256  0.95204954    -0.58500
O898        O  0.47112190  0.53258910  0.96009509    -0.95200
O899        O  0.48146813  0.46472639  0.95896627    -0.93600
O900        O  0.63905668  0.54070913  0.95135711    -0.93900
O901        O  0.63175853  0.62402726  0.95432025    -0.92700
C902        C  0.47539579  0.49701725  0.96685144     1.16300
H903        H  0.58842503  0.47402293  0.92405746     0.32300
H904        H  0.58153051  0.64718011  0.92570525     0.43100
H905        H  0.40247321  0.46353665  0.92851663     0.36700
H906        H  0.51142364  0.52732995  0.87142107     0.33100
H907        H  0.71214748  0.66118850  0.93157672     0.24900
H908        H  0.48985735  0.62754698  0.87254504     0.30900
H909        H  0.37436758  0.50761285  0.87186751     0.36800
H910        H  0.60719938  0.51581961  0.95652727     0.31200
H911        H  0.47598229  0.36493091  0.95036959     0.30100
H912        H  0.39184921  0.37562793  0.94405274     0.31800
H913        H  0.32958033  0.40535900  0.89060940     0.30800
H914        H  0.59868874  0.61796587  0.95805146     0.34800
H915        H  0.51121134  0.63999679  0.95758334     0.27500
H916        H  0.57887752  0.44750353  0.86401819     0.31700
H917        H  0.38437917  0.43165005  0.86496497     0.34600
H918        H  0.53377232  0.40299762  0.94929187     0.27200
H919        H  0.45530011  0.62433629  0.95380064     0.40000
H920        H  0.65189255  0.69981325  0.89694887     0.30100
H921        H  0.69393956  0.66192962  0.91387479     0.37700
H922        H  0.34499240  0.39970489  0.90826224     0.29600
H923        H  0.54088237  0.65170676  0.86320404     0.29600
H924        H  0.53624641  0.45887926  0.85932881     0.29900
Zr925      Zr  0.43446392  0.23365686  0.77906264     2.17500
O926        O  0.46720232  0.28316628  0.80375442    -0.52500
O927        O  0.50375223  0.21927434  0.77419910    -0.75700
O928        O  0.42943387  0.18038705  0.80153819    -0.82400
O929        O  0.48015294  0.34636866  0.75205808    -0.84200
O930        O  0.35460358  0.10804584  0.80094690    -0.79800
O931        O  0.50156975  0.31905673  0.77466291    -0.91400
O932        O  0.48224724  0.16678435  0.75262065    -0.77400
O933        O  0.39288632  0.14871407  0.77044415    -0.86900
O934        O  0.44433477  0.23591936  0.75034914    -0.86600
O935        O  0.34908878  0.19911019  0.78772701    -0.73300
O936        O  0.39661595  0.27992489  0.76892206    -0.85500
Zr937      Zr  0.27817599  0.16063113  0.73845954     2.26400
Zr938      Zr  0.30744563  0.11458293  0.77811912     2.06300
Zr939      Zr  0.40463047  0.27979167  0.74009760     2.10000
Zr940      Zr  0.40263450  0.15074115  0.74191019     1.78800
O941        O  0.38651963  0.34746862  0.73635574    -0.94300
O942        O  0.39143374  0.06811455  0.74753268    -0.42100
O943        O  0.36410435  0.19490785  0.73122994    -0.78700
O944        O  0.31583379  0.11377954  0.74904698    -0.97400
O945        O  0.26848456  0.15863910  0.76730234    -0.90700
O946        O  0.31862070  0.24571224  0.74735698    -0.93600
C947        C  0.51223414  0.19284410  0.76405352     1.00200
C948        C  0.50927596  0.35278599  0.76404365     1.13100
C949        C  0.39809218  0.13682144  0.80711812     1.03900
O950        O  0.29255657  0.02945561  0.78024863    -0.95700
O951        O  0.22701766  0.05078281  0.76802285    -0.91500
O952        O  0.21418911  0.07315660  0.74294234    -0.84600
C953        C  0.20164683  0.04216277  0.75487097     1.10500
O954        O  0.33938292  0.28990884  0.80171650    -0.97700
Zr955      Zr  0.31040227  0.24309776  0.77634474     1.88900
O956        O  0.21279689  0.18206254  0.74323417    -0.74300
O957        O  0.25366195  0.10252058  0.80137883    -0.53600
O958        O  0.24875096  0.20512913  0.79804529    -0.98300
O959        O  0.32401620  0.32764609  0.77287111    -0.55500
O960        O  0.23151857  0.22922922  0.76604766    -0.74900
C961        C  0.20304491  0.20619859  0.75398102     0.97500
O962        O  0.22605888  0.12450768  0.71441295    -0.63700
O963        O  0.47072439  0.32158051  0.71986892    -0.58500
O964        O  0.30531570  0.19298652  0.71051090    -0.95200
O965        O  0.38116187  0.26387503  0.71191749    -0.93600
O966        O  0.46113463  0.18700229  0.71933191    -0.93900
O967        O  0.37486250  0.09870921  0.71761638    -0.92700
C968        C  0.34428290  0.22997955  0.70387484     1.16300
H969        H  0.47921509  0.25301705  0.74723245     0.32300
H970        H  0.29891015  0.07979131  0.74505751     0.43100
H971        H  0.30436848  0.26381299  0.74219521     0.36700
H972        H  0.34763001  0.19968202  0.79943795     0.33100
H973        H  0.41615470  0.06574686  0.74048651     0.24900
H974        H  0.23870568  0.06655833  0.80414157     0.30900
H975        H  0.22272911  0.17249917  0.79365255     0.36800
H976        H  0.45153847  0.20958875  0.71385001     0.31200
H977        H  0.48323863  0.35788954  0.72112931     0.30100
H978        H  0.40630905  0.37210598  0.74488641     0.31800
H979        H  0.29522025  0.32711758  0.77836201     0.30800
H980        H  0.33790622  0.08217948  0.71787739     0.34800
H981        H  0.22534355  0.09251357  0.71237269     0.27500
H982        H  0.49098537  0.27367692  0.80833360     0.31700
H983        H  0.31492545  0.30065492  0.80441848     0.34600
H984        H  0.49848887  0.31672975  0.72362339     0.27200
H985        H  0.19163576  0.11468552  0.71787827     0.40000
H986        H  0.30593816  0.02409583  0.76998782     0.30100
H987        H  0.40450584  0.07052022  0.75869173     0.37700
H988        H  0.31818571  0.33040388  0.76118366     0.29600
H989        H  0.27672559  0.12026030  0.81049490     0.29600
H990        H  0.43869965  0.26914950  0.81144751     0.29900
Zr991      Zr  0.55712767  0.10848393  0.89295522     2.17500
O992        O  0.60945235  0.14096897  0.86877488    -0.52500
O993        O  0.54152523  0.17689721  0.89767185    -0.75700
O994        O  0.50611242  0.10405446  0.86982151    -0.82400
O995        O  0.66658513  0.15620581  0.92122909    -0.84200
O996        O  0.43345446  0.02943935  0.87040876    -0.79800
O997        O  0.64124469  0.17702401  0.89804750    -0.91400
O998        O  0.48963792  0.15509954  0.91945575    -0.77400
O999        O  0.47207115  0.06710664  0.90145257    -0.86900
O1000       O  0.55826741  0.11668575  0.92176473    -0.86600
O1001       O  0.52248225  0.02341411  0.88403353    -0.73300
O1002       O  0.60293734  0.07014091  0.90307793    -0.85500
Zr1003     Zr  0.48256130  0.95078694  0.93323491     2.26400
Zr1004     Zr  0.43792953  0.98197072  0.89344832     2.06300
Zr1005     Zr  0.60217148  0.07690447  0.93189547     2.10000
Zr1006     Zr  0.47314111  0.07507605  0.93007914     1.78800
O1007       O  0.67477027  0.06552999  0.93213634    -0.94300
O1008       O  0.39009970  0.06353948  0.92537337    -0.42100
O1009       O  0.51728735  0.03656666  0.94094608    -0.78700
O1010       O  0.43637965  0.98891682  0.92249067    -0.97400
O1011       O  0.48112041  0.94215331  0.90430054    -0.90700
O1012       O  0.56763850  0.99102406  0.92439819    -0.93600
C1013       C  0.51535800  0.18520494  0.90796005     1.00200
C1014       C  0.67366656  0.18557015  0.90920622     1.13100
C1015       C  0.46275094  0.07270299  0.86412913     1.03900
O1016       O  0.35488458  0.97184406  0.89052235    -0.95700
O1017       O  0.37254750  0.90251170  0.90364963    -0.91500
O1018       O  0.39484396  0.88820290  0.92856332    -0.84600
C1019       C  0.36369202  0.87674846  0.91674818     1.10500
O1020       O  0.61991104  0.01739402  0.87171838    -0.97700
Zr1021     Zr  0.56571768  0.98411777  0.89542608     1.88900
O1022       O  0.50744397  0.88719432  0.92926411    -0.74300
O1023       O  0.42666456  0.92825286  0.87027950    -0.53600
O1024       O  0.53161072  0.92962317  0.87185076    -0.98300
O1025       O  0.64704901  0.99051365  0.89918678    -0.55500
O1026       O  0.54698757  0.90282806  0.90492938    -0.74900
C1027       C  0.52765006  0.87573981  0.91758876     0.97500
O1028       O  0.43711368  0.88851116  0.95432792    -0.63700
O1029       O  0.63676525  0.13905185  0.95352569    -0.58500
O1030       O  0.51361619  0.98385010  0.96103233    -0.95200
O1031       O  0.59465102  0.04581216  0.95925167    -0.93600
O1032       O  0.50527523  0.13219858  0.95306581    -0.93900
O1033       O  0.42047448  0.04331974  0.95416001    -0.92700
C1034       C  0.55582882  0.01615403  0.96750430     1.16300
H1035       H  0.57502056  0.15139232  0.92500566     0.32300
H1036       H  0.40244075  0.97238726  0.92647760     0.43100
H1037       H  0.58573853  0.97658706  0.92951528     0.36700
H1038       H  0.52332950  0.02219143  0.87229587     0.33100
H1039       H  0.39199557  0.09458231  0.92951229     0.24900
H1040       H  0.42643391  0.89857435  0.87500675     0.30900
H1041       H  0.54764375  0.90870434  0.87198080     0.36800
H1042       H  0.53187293  0.12690693  0.95770753     0.31200
H1043       H  0.67331360  0.15220351  0.95320431     0.30100
H1044       H  0.66783614  0.04058401  0.94081928     0.31800
H1045       H  0.64576979  0.96354840  0.89232124     0.30800
H1046       H  0.43307395  0.02373929  0.96000963     0.34800
H1047       H  0.46261359  0.88361298  0.96002770     0.27500
H1048       H  0.60250461  0.16673585  0.86431746     0.31700
H1049       H  0.64056100  0.05380413  0.87380938     0.34600
H1050       H  0.63251260  0.16724124  0.94978148     0.27200
H1051       H  0.42646360  0.90522567  0.96234751     0.40000
H1052       H  0.34433300  0.97364745  0.90174591     0.30100
H1053       H  0.38765539  0.06562922  0.91342587     0.37700
H1054       H  0.64678886  0.97908036  0.91045856     0.29600
H1055       H  0.39168756  0.91569013  0.86678474     0.29600
H1056       H  0.59463670  0.11321948  0.86081363     0.29900
Zr1057     Zr  0.94182517  0.48659803  0.89265833     2.17500
O1058       O  0.90481834  0.50117555  0.86856511    -0.52500
O1059       O  0.87326472  0.40282698  0.89815053    -0.75700
O1060       O  0.94844823  0.44189930  0.86933449    -0.82400
O1061       O  0.89787988  0.55687868  0.91881129    -0.84200
O1062       O  0.02261579  0.44329221  0.87018027    -0.79800
O1063       O  0.87455024  0.50444044  0.89716558    -0.91400
O1064       O  0.89444643  0.37411410  0.92044753    -0.77400
O1065       O  0.98243112  0.44285771  0.90192962    -0.86900
O1066       O  0.93311114  0.48154772  0.92144896    -0.86600
O1067       O  0.02705825  0.53673843  0.88375445    -0.73300
O1068       O  0.98071823  0.57154389  0.90201020    -0.85500
Zr1069     Zr  0.09951349  0.57186246  0.93270601     2.26400
Zr1070     Zr  0.06756711  0.49313312  0.89377355     2.06300
Zr1071     Zr  0.97330023  0.56592461  0.93083925     2.10000
Zr1072     Zr  0.97437308  0.43845574  0.93063543     1.78800
O1073       O  0.98829924  0.65121601  0.93271518    -0.94300
O1074       O  0.98243153  0.36426338  0.92754926    -0.42100
O1075       O  0.01372207  0.52203252  0.94052176    -0.78700
O1076       O  0.06059382  0.48669641  0.92284997    -0.97400
O1077       O  0.10797298  0.57723779  0.90378275    -0.90700
O1078       O  0.05942940  0.61665262  0.92344499    -0.93600
C1079       C  0.86455257  0.36903925  0.90883366     1.00200
C1080       C  0.86776354  0.53223035  0.90724808     1.13100
C1081       C  0.97996281  0.43010884  0.86366590     1.03900
O1082       O  0.07204961  0.41655287  0.89288836    -0.95700
O1083       O  0.14676588  0.50708038  0.90377740    -0.91500
O1084       O  0.16435089  0.54969540  0.92759283    -0.84600
C1085       C  0.17457715  0.52760570  0.91621099     1.10500
O1086       O  0.03448397  0.64021827  0.87025138    -0.97700
Zr1087     Zr  0.06682636  0.62033381  0.89448890     1.88900
O1088       O  0.16258470  0.65980461  0.92872110    -0.74300
O1089       O  0.12615879  0.53153310  0.87130871    -0.53600
O1090       O  0.12439838  0.64039842  0.87174095    -0.98300
O1091       O  0.05487550  0.69232960  0.89749958    -0.55500
O1092       O  0.14650923  0.68512500  0.90468476    -0.74900
C1093       C  0.17350972  0.69227732  0.91733873     0.97500
O1094       O  0.15845049  0.58115774  0.95407655    -0.63700
O1095       O  0.90653258  0.53834352  0.95095515    -0.58500
O1096       O  0.07187443  0.57935298  0.96036961    -0.95200
O1097       O  0.99933482  0.58120424  0.95875322    -0.93600
O1098       O  0.91660402  0.41836750  0.95329083    -0.93900
O1099       O  0.00671351  0.42128570  0.95536317    -0.92700
C1100       C  0.03504012  0.58185229  0.96684017     1.16300
H1101       H  0.89836605  0.46409363  0.92467059     0.32300
H1102       H  0.07748028  0.46984349  0.92706743     0.43100
H1103       H  0.07366180  0.64936399  0.92839472     0.36700
H1104       H  0.02846692  0.53829111  0.87201600     0.33100
H1105       H  0.95459703  0.33808695  0.93405897     0.24900
H1106       H  0.13566080  0.50633668  0.86827167     0.30900
H1107       H  0.14705769  0.67711779  0.87231461     0.36800
H1108       H  0.92715431  0.45096793  0.95859405     0.31200
H1109       H  0.89760975  0.56503874  0.95118929     0.30100
H1110       H  0.97225990  0.65550941  0.92288683     0.31800
H1111       H  0.08444977  0.72040552  0.89220548     0.30800
H1112       H  0.04077288  0.45054949  0.95660985     0.34800
H1113       H  0.16564981  0.61170200  0.96018042     0.27500
H1114       H  0.87991309  0.46743022  0.86459202     0.31700
H1115       H  0.06189083  0.67263913  0.86616074     0.34600
H1116       H  0.87708602  0.50901560  0.94612282     0.27200
H1117       H  0.13939498  0.55300254  0.96171376     0.40000
H1118       H  0.06444627  0.40328002  0.90412880     0.30100
H1119       H  0.97281276  0.35372866  0.91612961     0.37700
H1120       H  0.05982102  0.70068434  0.90920295     0.29600
H1121       H  0.10569254  0.53177028  0.86207877     0.29600
H1122       H  0.93169103  0.51462761  0.86027543     0.29900
Zr1123     Zr  0.82117267  0.24176338  0.77845916     2.17500
O1124       O  0.77325058  0.22171471  0.80365946    -0.52500
O1125       O  0.83560928  0.32540865  0.77348032    -0.75700
O1126       O  0.87378007  0.29069771  0.80081358    -0.82400
O1127       O  0.70999207  0.17923251  0.75153957    -0.84200
O1128       O  0.94523202  0.28667154  0.80054546    -0.79800
O1129       O  0.73608970  0.22464514  0.77479703    -0.91400
O1130       O  0.88971267  0.35708845  0.75228371    -0.77400
O1131       O  0.90583332  0.28563200  0.76953328    -0.86900
O1132       O  0.81800978  0.24920769  0.74967887    -0.86600
O1133       O  0.85615180  0.19114578  0.78691584    -0.73300
O1134       O  0.77480126  0.15763236  0.76841711    -0.85500
Zr1135     Zr  0.89442675  0.15882173  0.73784172     2.26400
Zr1136     Zr  0.94045261  0.23488234  0.77730136     2.06300
Zr1137     Zr  0.77410071  0.16536270  0.73966614     2.10000
Zr1138     Zr  0.90295697  0.29257458  0.74092960     1.78800
O1139       O  0.70712550  0.07842167  0.73856444    -0.94300
O1140       O  0.98601488  0.36572068  0.74393153    -0.42100
O1141       O  0.85893619  0.20967892  0.73059809    -0.78700
O1142       O  0.94048745  0.24345465  0.74826190    -0.97400
O1143       O  0.89662820  0.15148803  0.76668725    -0.90700
O1144       O  0.80911771  0.11381799  0.74664877    -0.93600
C1145       C  0.86292302  0.36067697  0.76351210     1.00200
C1146       C  0.70300592  0.20047132  0.76386458     1.13100
C1147       C  0.91685221  0.30215654  0.80654937     1.03900
O1148       O  0.02394554  0.30785715  0.77895822    -0.95700
O1149       O  0.00597387  0.22144533  0.76693184    -0.91500
O1150       O  0.98158897  0.18153667  0.74262990    -0.84600
C1151       C  0.01372936  0.20268867  0.75410931     1.10500
O1152       O  0.76047095  0.08916214  0.79996027    -0.97700
Zr1153     Zr  0.81198303  0.10839009  0.77560606     1.88900
O1154       O  0.87009207  0.07050662  0.74160991    -0.74300
O1155       O  0.95356933  0.19251240  0.80017559    -0.53600
O1156       O  0.84806722  0.08564887  0.79813394    -0.98300
O1157       O  0.72872224  0.03566261  0.77211826    -0.55500
O1158       O  0.82717736  0.04422448  0.76532426    -0.74900
C1159       C  0.84785569  0.03754273  0.75284524     0.97500
O1160       O  0.94471220  0.15025860  0.71654865    -0.63700
O1161       O  0.72535543  0.17810642  0.71877372    -0.58500
O1162       O  0.86131659  0.15373557  0.71004304    -0.95200
O1163       O  0.79139623  0.16036398  0.71137548    -0.93600
O1164       O  0.86580749  0.31589189  0.71890206    -0.93900
O1165       O  0.95024983  0.31077033  0.71569200    -0.92700
C1166       C  0.82494438  0.15662158  0.70338207     1.16300
H1167       H  0.80097581  0.26708534  0.74660057     0.32300
H1168       H  0.97426131  0.26062648  0.74411041     0.43100
H1169       H  0.79111616  0.08141238  0.74147596     0.36700
H1170       H  0.85583811  0.18891919  0.79863996     0.33100
H1171       H  0.98357150  0.39335190  0.73867083     0.24900
H1172       H  0.96112067  0.16787700  0.79515451     0.30900
H1173       H  0.83253674  0.04875076  0.79751103     0.36800
H1174       H  0.84962254  0.28596067  0.71182320     0.31200
H1175       H  0.68986028  0.15401292  0.72130251     0.30100
H1176       H  0.68507963  0.07499934  0.74780592     0.31800
H1177       H  0.72983643  0.00821363  0.77802241     0.30800
H1178       H  0.93144207  0.28015620  0.70903476     0.34800
H1179       H  0.92182838  0.11914920  0.71061681     0.27500
H1180       H  0.78063155  0.25431677  0.80830696     0.31700
H1181       H  0.75414964  0.05603586  0.80380870     0.34600
H1182       H  0.72952298  0.21153831  0.72100133     0.27200
H1183       H  0.95305858  0.17784417  0.70873418     0.40000
H1184       H  0.02705985  0.32743977  0.76903484     0.30100
H1185       H  0.98897103  0.37369482  0.75567388     0.37700
H1186       H  0.72685212  0.02627367  0.76054269     0.29600
H1187       H  0.98574352  0.21809882  0.80495546     0.29600
H1188       H  0.78956030  0.20899140  0.81112676     0.29900
C1189       C  0.92049881  0.38645885  0.84072289    -0.14500
C1190       C  0.96546307  0.39882702  0.84871695     0.07700
C1191       C  0.99529641  0.38004961  0.84245840    -0.14500
C1192       C  0.97992963  0.34888885  0.82873166    -0.14500
C1193       C  0.93439529  0.33580266  0.82096565     0.07700
C1194       C  0.90521026  0.35546823  0.82708691    -0.14500
H1195       H  0.89667115  0.40044570  0.84505572     0.11700
H1196       H  0.03025185  0.38892720  0.84826761     0.11700
H1197       H  0.00351140  0.33474448  0.82429652     0.11700
H1198       H  0.87016289  0.34679575  0.82138540     0.11700
C1199       C  0.30403278  0.79386781  0.92980538    -0.14500
C1200       C  0.31393392  0.83101714  0.91809143     0.07700
C1201       C  0.27604746  0.82347521  0.90705839    -0.14500
C1202       C  0.23014378  0.77920848  0.90726279    -0.14500
C1203       C  0.22068908  0.74104224  0.91849387     0.07700
C1204       C  0.25778946  0.74920450  0.92999609    -0.14500
H1205       H  0.33244845  0.79866517  0.93849939     0.11700
H1206       H  0.28202417  0.85156783  0.89802607     0.11700
H1207       H  0.20234237  0.77459851  0.89834292     0.11700
H1208       H  0.25167573  0.72056033  0.93881999     0.11700
C1209       C  0.80640821  0.28336276  0.91947446    -0.14500
C1210       C  0.81652953  0.32124739  0.90807230     0.07700
C1211       C  0.77971063  0.31350827  0.89651930    -0.14500
C1212       C  0.73323078  0.26928526  0.89669974    -0.14500
C1213       C  0.72286248  0.23206869  0.90841936     0.07700
C1214       C  0.76022005  0.23954176  0.91968742    -0.14500
H1215       H  0.83394793  0.28771948  0.92846276     0.11700
H1216       H  0.78645885  0.34189537  0.88751459     0.11700
H1217       H  0.70529593  0.26455838  0.88781965     0.11700
H1218       H  0.75383575  0.21158413  0.92881950     0.11700
C1219       C  0.07227388  0.17715305  0.74148794    -0.14500
C1220       C  0.06327663  0.20605956  0.75275193     0.07700
C1221       C  0.10184600  0.23733222  0.76343912    -0.14500
C1222       C  0.14728705  0.23808338  0.76343911    -0.14500
C1223       C  0.15578204  0.20764365  0.75272827     0.07700
C1224       C  0.11810113  0.17782262  0.74150876    -0.14500
H1225       H  0.04344862  0.15294070  0.73300748     0.11700
H1226       H  0.09673554  0.26085308  0.77208045     0.11700
H1227       H  0.17553455  0.26211183  0.77210839     0.11700
H1228       H  0.12351777  0.15411592  0.73303739     0.11700
C1229       C  0.56724085  0.15880304  0.75593648    -0.14500
C1230       C  0.56001491  0.19275890  0.76526556     0.07700
C1231       C  0.59942476  0.22745769  0.77510895    -0.14500
C1232       C  0.64571448  0.22931186  0.77509717    -0.14500
C1233       C  0.65334472  0.19656890  0.76521285     0.07700
C1234       C  0.61322549  0.16069269  0.75591060    -0.14500
H1235       H  0.53754137  0.13108850  0.74839526     0.11700
H1236       H  0.59497439  0.25405446  0.78246796     0.11700
H1237       H  0.67588889  0.25730037  0.78242222     0.11700
H1238       H  0.61750314  0.13432631  0.74836735     0.11700
C1239       C  0.46275470  0.14850199  0.82775387    -0.14500
C1240       C  0.41396576  0.11925859  0.82159827     0.07700
C1241       C  0.38126127  0.07382179  0.82945360    -0.14500
C1242       C  0.39694732  0.05837933  0.84321194    -0.14500
C1243       C  0.44571809  0.08796974  0.84938579     0.07700
C1244       C  0.47837858  0.13309618  0.84140665    -0.14500
H1245       H  0.48920070  0.18359113  0.82202711     0.11700
H1246       H  0.34345952  0.05034585  0.82504965     0.11700
H1247       H  0.37074648  0.02343733  0.84906576     0.11700
H1248       H  0.51626312  0.15681543  0.84571040     0.11700
C1249       C  0.73802913  0.50577414  0.89533105    -0.14500
C1250       C  0.73201454  0.53870290  0.90565309     0.07700
C1251       C  0.77231837  0.57183038  0.91545737    -0.14500
C1252       C  0.81664239  0.57044479  0.91557664    -0.14500
C1253       C  0.82203939  0.53604816  0.90583398     0.07700
C1254       C  0.78269341  0.50445765  0.89542213    -0.14500
H1255       H  0.70777642  0.48002716  0.88754179     0.11700
H1256       H  0.76937125  0.59829621  0.92335698     0.11700
H1257       H  0.84639481  0.59587149  0.92358545     0.11700
H1258       H  0.78583996  0.47777338  0.88769627     0.11700
C1259       C  0.23319301  0.50217510  0.90455521    -0.14500
C1260       C  0.22151181  0.52541823  0.91713414     0.07700
C1261       C  0.25555701  0.54710795  0.93006165    -0.14500
C1262       C  0.30062549  0.54621320  0.93020640    -0.14500
C1263       C  0.31237428  0.52346719  0.91744462     0.07700
C1264       C  0.27779192  0.50127778  0.90469984    -0.14500
H1265       H  0.20809222  0.48496625  0.89437328     0.11700
H1266       H  0.24766751  0.56521967  0.93995853     0.11700
H1267       H  0.32639443  0.56370778  0.94020455     0.11700
H1268       H  0.28528407  0.48348424  0.89460843     0.11700
C1269       C  0.48763475  0.28833408  0.91749109    -0.14500
C1270       C  0.52029220  0.32681387  0.90693643     0.07700
C1271       C  0.54940523  0.31741083  0.89594152    -0.14500
C1272       C  0.54697286  0.27086148  0.89590180    -0.14500
C1273       C  0.51542955  0.23305995  0.90686851     0.07700
C1274       C  0.48514972  0.24210060  0.91742940    -0.14500
H1275       H  0.46412880  0.29394277  0.92599795     0.11700
H1276       H  0.57469818  0.34622890  0.88760543     0.11700
H1277       H  0.57057509  0.26491168  0.88754337     0.11700
H1278       H  0.45997103  0.21371450  0.92590626     0.11700
C1279       C  0.55395511  0.77279184  0.90555309    -0.14500
C1280       C  0.52422512  0.73412034  0.91646568     0.07700
C1281       C  0.49766373  0.74336134  0.92859503    -0.14500
C1282       C  0.49976329  0.78987670  0.92944348    -0.14500
C1283       C  0.52851368  0.82797731  0.91818511     0.07700
C1284       C  0.55625448  0.81898487  0.90644809    -0.14500
H1285       H  0.57546716  0.76742177  0.89618858     0.11700
H1286       H  0.47454042  0.71438320  0.93723811     0.11700
H1287       H  0.47794222  0.79552522  0.93861674     0.11700
H1288       H  0.57933090  0.84748372  0.89766026     0.11700
C1289       C  0.07360519  0.93719625  0.74145151    -0.14500
C1290       C  0.06452948  0.89987392  0.75303962     0.07700
C1291       C  0.10191319  0.90926867  0.76454531    -0.14500
C1292       C  0.14639429  0.95495847  0.76482410    -0.14500
C1293       C  0.15512232  0.99287122  0.75359968     0.07700
C1294       C  0.11859349  0.98329331  0.74171041    -0.14500
H1295       H  0.04563605  0.93119748  0.73241417     0.11700
H1296       H  0.09668539  0.88146473  0.77358763     0.11700
H1297       H  0.17386567  0.96063716  0.77401736     0.11700
H1298       H  0.12426658  0.01175425  0.73286715     0.11700
C1299       C  0.63997819  0.45569550  0.77503464    -0.14500
C1300       C  0.64488496  0.49536342  0.76522663     0.07700
C1301       C  0.60377131  0.48854479  0.75593486    -0.14500
C1302       C  0.55947562  0.44264624  0.75593300    -0.14500
C1303       C  0.55499886  0.40239502  0.76529434     0.07700
C1304       C  0.59538201  0.40959675  0.77507129    -0.14500
H1305       H  0.67100746  0.45976260  0.78232455     0.11700
H1306       H  0.60601831  0.51842667  0.74837794     0.11700
H1307       H  0.52892746  0.43854469  0.74836469     0.11700
H1308       H  0.59307964  0.37921221  0.78236005     0.11700
C1309       C  0.87814756  0.93582827  0.74161238    -0.14500
C1310       C  0.84884453  0.89814966  0.75294722     0.07700
C1311       C  0.81698659  0.90557031  0.76331242    -0.14500
C1312       C  0.81565281  0.95004222  0.76277441    -0.14500
C1313       C  0.84620358  0.98862401  0.75188041     0.07700
C1314       C  0.87689611  0.98070855  0.74109430    -0.14500
H1315       H  0.90302561  0.93120205  0.73344580     0.11700
H1316       H  0.79333939  0.87717663  0.77204768     0.11700
H1317       H  0.79114267  0.95445280  0.77118049     0.11700
H1318       H  0.90099010  0.00969213  0.73260081     0.11700
C1319       C  0.82669863  0.45746461  0.77480860    -0.14500
C1320       C  0.85649803  0.49649137  0.76399186     0.07700
C1321       C  0.88995305  0.49127432  0.75371386    -0.14500
C1322       C  0.89307032  0.44789996  0.75401387    -0.14500
C1323       C  0.86249630  0.40825702  0.76450091     0.07700
C1324       C  0.82971546  0.41367689  0.77507121    -0.14500
H1325       H  0.80050891  0.46037750  0.78284548     0.11700
H1326       H  0.91373816  0.52065477  0.74527681     0.11700
H1327       H  0.91894658  0.44521818  0.74575955     0.11700
H1328       H  0.80561816  0.38371811  0.78328168     0.11700
C1329       C  0.70535653  0.67081167  0.82878544    -0.14500
C1330       C  0.72508133  0.64189339  0.82248842     0.07700
C1331       C  0.71347047  0.59684501  0.83041468    -0.14500
C1332       C  0.68191141  0.58034250  0.84393234    -0.14500
C1333       C  0.66106413  0.60845351  0.85001188     0.07700
C1334       C  0.67370901  0.65426950  0.84240515    -0.14500
H1335       H  0.71365178  0.70577961  0.82303948     0.11700
H1336       H  0.72839310  0.57380088  0.82608737     0.11700
H1337       H  0.67370673  0.54525731  0.84957390     0.11700
H1338       H  0.65858237  0.67703478  0.84682429     0.11700
C1339       C  0.61059371  0.04914236  0.01004092    -0.14500
C1340       C  0.57241063  0.05128397  0.01861877     0.07700
C1341       C  0.52788499  0.03951220  0.01044708    -0.14500
C1342       C  0.52136791  0.02522463  0.99404185    -0.14500
C1343       C  0.55975767  0.02364570  0.98537798     0.07700
C1344       C  0.60476611  0.03655369  0.99349793    -0.14500
H1345       H  0.64496522  0.05735892  0.01614665     0.11700
H1346       H  0.49750909  0.03987768  0.01690684     0.11700
H1347       H  0.48686566  0.01680294  0.98799201     0.08100
H1348       H  0.63537446  0.03666185  0.98703391     0.11700
C1349       C  0.37116908  0.01407920  0.15996849    -0.14500
C1350       C  0.38895962  0.98351039  0.15359884     0.07700
C1351       C  0.37503955  0.93770610  0.16135464    -0.14500
C1352       C  0.34429149  0.92282550  0.17505536    -0.14500
C1353       C  0.32637869  0.95321080  0.18145992     0.07700
C1354       C  0.34026735  0.99913050  0.17376273    -0.14500
H1355       H  0.38109464  0.04959723  0.15429984     0.11700
H1356       H  0.38798902  0.91315374  0.15687873     0.11700
H1357       H  0.33475548  0.88731534  0.18066020     0.11700
H1358       H  0.32728899  0.02350832  0.17837726     0.11700
C1359       C  0.45233225  0.50680593  0.01162884    -0.14500
C1360       C  0.48287115  0.49041926  0.01909128     0.07700
C1361       C  0.50950082  0.47493761  0.00917146    -0.14500
C1362       C  0.50596679  0.47618529  0.99222593    -0.14500
C1363       C  0.47660755  0.49396862  0.98480816     0.07700
C1364       C  0.44972417  0.50912936  0.99468341    -0.14500
H1365       H  0.43139489  0.51925625  0.01889520     0.11700
H1366       H  0.53327977  0.46218611  0.01449424     0.11700
H1367       H  0.52737144  0.46443930  0.98488647     0.11700
H1368       H  0.42664487  0.52264762  0.98930663     0.11700
C1369       C  0.49832631  0.75914455  0.10668064    -0.14500
C1370       C  0.53307339  0.75403135  0.09703507     0.07700
C1371       C  0.56726815  0.79487596  0.08755498    -0.14500
C1372       C  0.56595303  0.83930975  0.08735487    -0.14500
C1373       C  0.53039249  0.84410533  0.09662372     0.07700
C1374       C  0.49700410  0.80383422  0.10647753    -0.14500
H1375       H  0.47136999  0.72826016  0.11406329     0.11700
H1376       H  0.59481957  0.79241317  0.08007788     0.11700
H1377       H  0.59254398  0.86975087  0.07974403     0.11700
H1378       H  0.46904647  0.80636780  0.11370189     0.11700
C1379       C  0.49047959  0.25256788  0.09748327    -0.14500
C1380       C  0.51950953  0.24403933  0.08618580     0.07700
C1381       C  0.54591695  0.28057906  0.07420559    -0.14500
C1382       C  0.54403621  0.32510971  0.07379945    -0.14500
C1383       C  0.51565085  0.33379408  0.08535068     0.07700
C1384       C  0.48842620  0.29659945  0.09703390    -0.14500
H1385       H  0.46938697  0.22528247  0.10683801     0.11700
H1386       H  0.56873927  0.27520779  0.06535116     0.11700
H1387       H  0.56569566  0.35314491  0.06470727     0.11700
H1388       H  0.46600543  0.30174519  0.10611258     0.11700
C1389       C  0.90264794  0.84150357  0.23888512    -0.14500
C1390       C  0.89397579  0.87036828  0.25020891     0.07700
C1391       C  0.93056948  0.89701268  0.26210474    -0.14500
C1392       C  0.97544606  0.89582323  0.26231744    -0.14500
C1393       C  0.98440732  0.86788131  0.25065925     0.07700
C1394       C  0.94706862  0.84026533  0.23910833    -0.14500
H1395       H  0.87520636  0.82002201  0.22965249     0.11700
H1396       H  0.92502738  0.91961767  0.27100220     0.11700
H1397       H  0.00348990  0.91761898  0.27135118     0.11700
H1398       H  0.95229650  0.81797773  0.22999993     0.11700
C1399       C  0.45601586  0.85198909  0.22808441    -0.14500
C1400       C  0.49482815  0.88247738  0.23884968     0.07700
C1401       C  0.48875147  0.91568294  0.24898246    -0.14500
C1402       C  0.44438618  0.91707797  0.24884339    -0.14500
C1403       C  0.40467121  0.88522092  0.23860021     0.07700
C1404       C  0.41128928  0.85328442  0.22797740    -0.14500
H1405       H  0.45959400  0.82609820  0.22008887     0.11700
H1406       H  0.51800435  0.94014142  0.25730655     0.11700
H1407       H  0.44096102  0.94259090  0.25706327     0.11700
H1408       H  0.38149037  0.82835540  0.21989899     0.11700
C1409       C  0.67049662  0.73243773  0.17388103    -0.14500
C1410       C  0.63860241  0.74710376  0.18118774     0.07700
C1411       C  0.59077351  0.72955118  0.17450347    -0.14500
C1412       C  0.57495525  0.69783497  0.16106490    -0.14500
C1413       C  0.60642243  0.68260229  0.15381567     0.07700
C1414       C  0.65457000  0.70050442  0.16033903    -0.14500
H1415       H  0.70760065  0.74526880  0.17869634     0.11700
H1416       H  0.56502981  0.73985662  0.17974962     0.11700
H1417       H  0.53767740  0.68507306  0.15641591     0.11700
H1418       H  0.67989244  0.68976246  0.15502456     0.11700
C1419       C  0.16645783  0.08876076  0.26200073    -0.14500
C1420       C  0.19473214  0.08034254  0.25028108     0.07700
C1421       C  0.22422538  0.11896733  0.23933558    -0.14500
C1422       C  0.22495129  0.16436204  0.23982352    -0.14500
C1423       C  0.19602099  0.17273741  0.25122626     0.07700
C1424       C  0.16708237  0.13463337  0.26246583    -0.14500
H1425       H  0.14323441  0.05967405  0.27059977     0.11700
H1426       H  0.24681502  0.11418150  0.23023471     0.11700
H1427       H  0.24807036  0.19284607  0.23103756     0.11700
H1428       H  0.14422511  0.13984972  0.27135067     0.11700
C1429       C  0.15847585  0.58933309  0.24916277    -0.14500
C1430       C  0.18985113  0.58101071  0.23888374     0.07700
C1431       C  0.22243838  0.61951620  0.22830001    -0.14500
C1432       C  0.22424221  0.66581543  0.22831496    -0.14500
C1433       C  0.19353951  0.67424116  0.23892361     0.07700
C1434       C  0.16033171  0.63524126  0.24919898    -0.14500
H1435       H  0.13267152  0.56051262  0.25740499     0.11700
H1436       H  0.24715583  0.61424193  0.22025022     0.11700
H1437       H  0.25025915  0.69520418  0.22027657     0.11700
H1438       H  0.13582439  0.64016554  0.25745618     0.11700
C1439       C  0.97600069  0.13959956  0.26354974    -0.14500
C1440       C  0.98492447  0.17693224  0.25198669     0.07700
C1441       C  0.94619659  0.16952601  0.24139068    -0.14500
C1442       C  0.90055220  0.12511939  0.24174115    -0.14500
C1443       C  0.89217596  0.08652569  0.25266118     0.07700
C1444       C  0.92995110  0.09466731  0.26387066    -0.14500
H1445       H  0.00503110  0.14442191  0.27198208     0.11700
H1446       H  0.95133321  0.19778965  0.23254052     0.11700
H1447       H  0.87217313  0.12068600  0.23308891     0.11700
H1448       H  0.92455172  0.06580931  0.27250733     0.11700
C1449       C  0.45140268  0.65986532  0.22780537    -0.14500
C1450       C  0.48958658  0.66607247  0.23855679     0.07700
C1451       C  0.48145279  0.62586366  0.24864242    -0.14500
C1452       C  0.43584403  0.58131869  0.24848763    -0.14500
C1453       C  0.39687701  0.57549377  0.23822684     0.07700
C1454       C  0.40543067  0.61489727  0.22762868    -0.14500
H1455       H  0.45657571  0.69006699  0.21981454     0.11700
H1456       H  0.51010823  0.62894004  0.25693811     0.11700
H1457       H  0.43093945  0.55164702  0.25668483     0.11700
H1458       H  0.37620875  0.61153291  0.21954714     0.11700
C1459       C  0.98260750  0.55592617  0.99194987    -0.14500
C1460       C  0.03045018  0.58161928  0.98473959     0.07700
C1461       C  0.07261143  0.60547743  0.99475750    -0.14500
C1462       C  0.06697250  0.60416666  0.01166423    -0.14500
C1463       C  0.01912355  0.57786545  0.01890230     0.07700
C1464       C  0.97703037  0.55352509  0.00885595    -0.14500
H1465       H  0.94939003  0.53666570  0.98447942     0.11700
H1466       H  0.10976756  0.62542311  0.98951904     0.11700
H1467       H  0.10029688  0.62293958  0.01910266     0.11700
H1468       H  0.93986302  0.53289724  0.01405551     0.11700
C1469       C  0.27028169  0.57474371  0.10827192    -0.14500
C1470       C  0.23094683  0.54038692  0.09830716     0.07700
C1471       C  0.23853895  0.50711946  0.08872829    -0.14500
C1472       C  0.28446293  0.50894144  0.08869843    -0.14500
C1473       C  0.32429464  0.54400235  0.09827215     0.07700
C1474       C  0.31658181  0.57649944  0.10826860    -0.14500
H1475       H  0.26564810  0.60090043  0.11580560     0.11700
H1476       H  0.20907222  0.47978809  0.08103446     0.11700
H1477       H  0.28879093  0.48293441  0.08098463     0.11700
H1478       H  0.34657717  0.60398049  0.11577365     0.11700
C1479       C  0.81452341  0.57841466  0.09721851    -0.14500
C1480       C  0.82421325  0.55051780  0.08577810     0.07700
C1481       C  0.78696283  0.52162955  0.07432471    -0.14500
C1482       C  0.74062097  0.51987080  0.07462087    -0.14500
C1483       C  0.73080209  0.54691808  0.08639404     0.07700
C1484       C  0.76865015  0.57662283  0.09752337    -0.14500
H1485       H  0.84224971  0.60139700  0.10618342     0.11700
H1486       H  0.79320781  0.49962497  0.06537800     0.11700
H1487       H  0.71226526  0.49669230  0.06585508     0.11700
H1488       H  0.76285478  0.59847223  0.10665492     0.11700
C1489       C  0.23245388  0.78590169  0.08688347    -0.14500
C1490       C  0.22650231  0.74700778  0.09726633     0.07700
C1491       C  0.26594647  0.75520352  0.10770039    -0.14500
C1492       C  0.31092669  0.80099964  0.10739000    -0.14500
C1493       C  0.31711126  0.83926243  0.09663322     0.07700
C1494       C  0.27707584  0.83134758  0.08657905    -0.14500
H1495       H  0.20275777  0.78113805  0.07876627     0.11700
H1496       H  0.26250911  0.72590741  0.11580483     0.11700
H1497       H  0.34109948  0.80602917  0.11532244     0.11700
H1498       H  0.28026119  0.86011133  0.07826917     0.11700
C1499       C  0.74377954  0.28256899  0.07344367    -0.14500
C1500       C  0.73291106  0.24564100  0.08534121     0.07700
C1501       C  0.76861614  0.25520504  0.09751337    -0.14500
C1502       C  0.81315474  0.30069915  0.09814910    -0.14500
C1503       C  0.82370431  0.33830182  0.08661658     0.07700
C1504       C  0.78889035  0.32852930  0.07406279    -0.14500
H1505       H  0.71711669  0.27639678  0.06390399     0.11700
H1506       H  0.76203417  0.22763644  0.10681095     0.11700
H1507       H  0.83918742  0.30644329  0.10785987     0.11700
H1508       H  0.79604179  0.35667974  0.06492036     0.11700
C1509       C  0.04925502  0.41867625  0.16234807    -0.14500
C1510       C  0.08241968  0.46388611  0.15444197     0.07700
C1511       C  0.13161901  0.49208622  0.16028972    -0.14500
C1512       C  0.14712935  0.47624432  0.17382650    -0.14500
C1513       C  0.11396851  0.43164986  0.18197511     0.07700
C1514       C  0.06486199  0.40274438  0.17600183    -0.14500
H1515       H  0.01116383  0.39586510  0.15809627     0.11700
H1516       H  0.15845486  0.52675879  0.15443247     0.11700
H1517       H  0.18531729  0.49936679  0.17794340     0.11700
H1518       H  0.03836966  0.36809857  0.18194781     0.11700
C1519       C  0.92125062  0.74439022  0.65874709    -0.14500
C1520       C  0.89735891  0.69648689  0.65154170     0.07700
C1521       C  0.87510355  0.65406494  0.66157978    -0.14500
C1522       C  0.87734544  0.65946872  0.67847329    -0.14500
C1523       C  0.90093348  0.70738844  0.68568109     0.07700
C1524       C  0.92248532  0.74980541  0.67564519    -0.14500
H1525       H  0.93814449  0.77786165  0.65127834     0.11700
H1526       H  0.85624772  0.61681403  0.65638240     0.11700
H1527       H  0.85973246  0.62595343  0.68591907     0.11700
H1528       H  0.94061114  0.78703771  0.68084900     0.11700
C1529       C  0.64679576  0.88662900  0.34249214    -0.14500
C1530       C  0.68885191  0.91003253  0.35259203     0.07700
C1531       C  0.73677559  0.93634226  0.34542875    -0.14500
C1532       C  0.74254814  0.93891127  0.32853253    -0.14500
C1533       C  0.70044880  0.91625019  0.31844711     0.07700
C1534       C  0.65251930  0.89018492  0.32559451    -0.14500
H1535       H  0.60956840  0.86589825  0.34764305     0.11700
H1536       H  0.77006210  0.95422570  0.35291337     0.11700
H1537       H  0.77979455  0.95897311  0.32336519     0.11700
H1538       H  0.61932105  0.87169293  0.31808357     0.11700
C1539       C  0.80051787  0.82351300  0.49509801    -0.14500
C1540       C  0.75558413  0.79092554  0.48710601     0.07700
C1541       C  0.72615577  0.74180775  0.49313318    -0.14500
C1542       C  0.74124567  0.72600008  0.50694271    -0.14500
C1543       C  0.78607784  0.75898332  0.51497465     0.07700
C1544       C  0.81547838  0.80783893  0.50880808    -0.14500
H1545       H  0.82422323  0.86157273  0.49085929     0.11700
H1546       H  0.69142630  0.71562740  0.48722236     0.11700
H1547       H  0.71778405  0.68807824  0.51133353     0.11700
H1548       H  0.85018926  0.83445190  0.51463717     0.11700
C1549       C  0.31493223  0.21247884  0.65869991    -0.14500
C1550       C  0.36329884  0.23790651  0.65178948     0.07700
C1551       C  0.40480266  0.26015366  0.66212039    -0.14500
C1552       C  0.39811813  0.25813501  0.67897744    -0.14500
C1553       C  0.34981058  0.23279821  0.68592107     0.07700
C1554       C  0.30827000  0.20950634  0.67558851    -0.14500
H1555       H  0.28209094  0.19435019  0.65101793     0.11700
H1556       H  0.44234689  0.27976787  0.65717038     0.11700
H1557       H  0.43105989  0.27589050  0.68661728     0.11700
H1558       H  0.27074226  0.18947373  0.68054225     0.11700
C1559       C  0.15307075  0.95024796  0.58069418    -0.14500
C1560       C  0.16062099  0.99110428  0.57104633     0.07700
C1561       C  0.12191796  0.98555482  0.56066636    -0.14500
C1562       C  0.07557758  0.94109373  0.56075153    -0.14500
C1563       C  0.06727124  0.90144152  0.57117849     0.07700
C1564       C  0.10702409  0.90611612  0.58079652    -0.14500
H1565       H  0.18238476  0.95271903  0.58855020     0.11700
H1566       H  0.12678153  0.01613202  0.55292098     0.11700
H1567       H  0.04582183  0.93846267  0.55308988     0.11700
H1568       H  0.10232388  0.87599243  0.58874306     0.11700
C1569       C  0.59889852  0.42169061  0.59688056    -0.14500
C1570       C  0.56092961  0.41407908  0.58581476     0.07700
C1571       C  0.56961443  0.45301616  0.57499691    -0.14500
C1572       C  0.61553201  0.49733721  0.57470089    -0.14500
C1573       C  0.65437826  0.50428143  0.58520481     0.07700
C1574       C  0.64522321  0.46645460  0.59659279    -0.14500
H1575       H  0.59341939  0.39250798  0.60538732     0.11700
H1576       H  0.54118158  0.44895604  0.56642623     0.11700
H1577       H  0.62079600  0.52592513  0.56596580     0.11700
H1578       H  0.67430522  0.47076514  0.60491385     0.11700
C1579       C  0.18376464  0.81495887  0.34116544    -0.14500
C1580       C  0.16096026  0.83326128  0.35164499     0.07700
C1581       C  0.13483230  0.85575010  0.34493547    -0.14500
C1582       C  0.13158153  0.85986770  0.32810242    -0.14500
C1583       C  0.15350662  0.84062408  0.31763097     0.07700
C1584       C  0.17957051  0.81808750  0.32433098    -0.14500
H1585       H  0.20423687  0.79772057  0.34596947     0.11700
H1586       H  0.11735919  0.87085820  0.35273482     0.11700
H1587       H  0.11145928  0.87746611  0.32328898     0.11700
H1588       H  0.19744309  0.80343966  0.31651386     0.11700
C1589       C  0.95654968  0.84132457  0.41941049    -0.14500
C1590       C  0.99462396  0.87190469  0.43034813     0.07700
C1591       C  0.98552036  0.90055939  0.44166090    -0.14500
C1592       C  0.93950115  0.89927233  0.44177142    -0.14500
C1593       C  0.90183204  0.86917445  0.43060311     0.07700
C1594       C  0.91090777  0.83996343  0.41954251    -0.14500
H1595       H  0.96199795  0.81852449  0.41056145     0.11700
H1596       H  0.01415353  0.92453928  0.45023169     0.11700
H1597       H  0.93370279  0.92227414  0.45043533     0.11700
H1598       H  0.88289029  0.81623241  0.41076629     0.11700
C1599       C  0.43857117  0.90343299  0.43053446    -0.14500
C1600       C  0.40066774  0.87387839  0.41941016     0.07700
C1601       C  0.40981631  0.84557348  0.40792795    -0.14500
C1602       C  0.45552658  0.84594475  0.40794718    -0.14500
C1603       C  0.49275146  0.87462256  0.41944413     0.07700
C1604       C  0.48378632  0.90381111  0.43054991    -0.14500
H1605       H  0.43328981  0.92624175  0.43942282     0.11700
H1606       H  0.38137502  0.82242394  0.39917819     0.11700
H1607       H  0.46129157  0.82305848  0.39922355     0.11700
H1608       H  0.51169230  0.92691152  0.43944985     0.11700
C1609       C  0.24611374  0.02741848  0.49369346    -0.14500
C1610       C  0.27538314  0.00846023  0.48717177     0.07700
C1611       C  0.32145778  0.02185563  0.49465697    -0.14500
C1612       C  0.33768152  0.05335350  0.50832381    -0.14500
C1613       C  0.30822259  0.07223598  0.51478475     0.07700
C1614       C  0.26226828  0.05877680  0.50723817    -0.14500
H1615       H  0.21048198  0.01814682  0.48831686     0.11700
H1616       H  0.34491813  0.00784305  0.49000530     0.11700
H1617       H  0.37308006  0.06261022  0.51387616     0.11700
H1618       H  0.23834514  0.07234769  0.51181421     0.11700
C1619       C  0.25851903  0.42131287  0.34173343    -0.14500
C1620       C  0.23866218  0.37900807  0.35184989     0.07700
C1621       C  0.21501791  0.33104950  0.34467100    -0.14500
C1622       C  0.21090372  0.32546130  0.32777626    -0.14500
C1623       C  0.23138486  0.36773552  0.31767935     0.07700
C1624       C  0.25540317  0.41572453  0.32482392    -0.14500
H1625       H  0.27660989  0.45862230  0.34687879     0.11700
H1626       H  0.19867412  0.29761168  0.35215192     0.11700
H1627       H  0.19204315  0.28816359  0.32261607     0.11700
H1628       H  0.27095608  0.44909787  0.31731509     0.11700
C1629       C  0.23696264  0.12333294  0.42245235    -0.14500
C1630       C  0.20200369  0.08134882  0.43130436     0.07700
C1631       C  0.16662784  0.08538740  0.44100123    -0.14500
C1632       C  0.16515317  0.13005822  0.44129759    -0.14500
C1633       C  0.19902886  0.17132841  0.43189415     0.07700
C1634       C  0.23552388  0.16768045  0.42275714    -0.14500
H1635       H  0.26514060  0.12180393  0.41503687     0.11700
H1636       H  0.13920817  0.05365068  0.44798492     0.11700
H1637       H  0.13658297  0.13173106  0.44844643     0.11700
H1638       H  0.26263323  0.19893243  0.41552877     0.11700
C1639       C  0.15536164  0.57778068  0.42804574    -0.14500
C1640       C  0.18719706  0.57050629  0.41762449     0.07700
C1641       C  0.21579061  0.60806088  0.40614094    -0.14500
C1642       C  0.21470543  0.65311780  0.40583732    -0.14500
C1643       C  0.18503220  0.66131266  0.41701954     0.07700
C1644       C  0.15428203  0.62239260  0.42774251    -0.14500
H1645       H  0.13186608  0.54931623  0.43677995     0.11700
H1646       H  0.24028200  0.60339432  0.39780449     0.11700
H1647       H  0.23847366  0.68216748  0.39730694     0.11700
H1648       H  0.13006152  0.62679174  0.43627645     0.11700
C1649       C  0.45808940  0.65667387  0.40890816    -0.14500
C1650       C  0.49632785  0.66428564  0.41984860     0.07700
C1651       C  0.48912084  0.62461444  0.43004995    -0.14500
C1652       C  0.44438968  0.57904489  0.42970535    -0.14500
C1653       C  0.40534054  0.57175665  0.41919613     0.07700
C1654       C  0.41294151  0.61082848  0.40860278    -0.14500
H1655       H  0.46251772  0.68656087  0.40090150     0.11700
H1656       H  0.51796442  0.62885641  0.43847359     0.11700
H1657       H  0.44022397  0.54966864  0.43791455     0.11700
H1658       H  0.38358385  0.60646788  0.40040162     0.11700
C1659       C  0.97939438  0.12988279  0.44173258    -0.14500
C1660       C  0.98457507  0.16942449  0.43181183     0.07700
C1661       C  0.94338706  0.16293483  0.42263104    -0.14500
C1662       C  0.89881526  0.11728661  0.42275203    -0.14500
C1663       C  0.89422563  0.07693384  0.43207865     0.07700
C1664       C  0.93453640  0.08403510  0.44188606    -0.14500
H1665       H  0.01042381  0.13380385  0.44899204     0.11700
H1666       H  0.94580328  0.19284807  0.41504964     0.11700
H1667       H  0.86822591  0.11336188  0.41524488     0.11700
H1668       H  0.93205108  0.05367360  0.44923179     0.11700
C1669       C  0.79985328  0.19009476  0.66139658    -0.14500
C1670       C  0.81988176  0.16795836  0.65130553     0.07700
C1671       C  0.84166370  0.14182655  0.65848621    -0.14500
C1672       C  0.84355619  0.13804643  0.67538199    -0.14500
C1673       C  0.82277415  0.15942951  0.68545965     0.07700
C1674       C  0.80078354  0.18537918  0.67829244    -0.14500
H1675       H  0.78313239  0.21063585  0.65624036     0.11700
H1676       H  0.85805397  0.12486761  0.65102389     0.11700
H1677       H  0.86090687  0.11812250  0.68055319     0.11700
H1678       H  0.78506289  0.20292984  0.68578678     0.11700
C1679       C  0.90668296  0.45323909  0.57590764    -0.14500
C1680       C  0.87226951  0.41284917  0.58546908     0.07700
C1681       C  0.84092497  0.42016291  0.59616040    -0.14500
C1682       C  0.84226334  0.46630255  0.59658373    -0.14500
C1683       C  0.87509691  0.50581082  0.58636865     0.07700
C1684       C  0.90817414  0.49906378  0.57637915    -0.14500
H1685       H  0.93203137  0.44922931  0.56777498     0.11700
H1686       H  0.81415426  0.38974997  0.60373527     0.11700
H1687       H  0.81634044  0.47037915  0.60441233     0.11700
H1688       H  0.93452113  0.52888690  0.56852776     0.11700
C1689       C  0.82014137  0.91397367  0.58011217    -0.14500
C1690       C  0.85664925  0.90819057  0.57178664     0.07700
C1691       C  0.89315051  0.94880756  0.56269601    -0.14500
C1692       C  0.89403974  0.99471383  0.56244310    -0.14500
C1693       C  0.85851700  0.00081889  0.57129459     0.07700
C1694       C  0.82107046  0.95962286  0.57987608    -0.14500
H1695       H  0.79107340  0.88333698  0.58705290     0.11700
H1696       H  0.92184630  0.94558728  0.55616206     0.11700
H1697       H  0.92350066  0.02585248  0.55578623     0.11700
H1698       H  0.79279929  0.96284550  0.58668640     0.11700
C1699       C  0.64519581  0.22467772  0.59714645    -0.14500
C1700       C  0.65387873  0.19573436  0.58579187     0.07700
C1701       C  0.61556362  0.16614698  0.57474874    -0.14500
C1702       C  0.57081968  0.16686156  0.57455903    -0.14500
C1703       C  0.56260703  0.19711555  0.58541073     0.07700
C1704       C  0.59990520  0.22528159  0.59698287    -0.14500
H1705       H  0.67383478  0.24785536  0.60583716     0.11700
H1706       H  0.62036338  0.14287192  0.56592475     0.11700
H1707       H  0.54283108  0.14406991  0.56563791     0.11700
H1708       H  0.59473679  0.24888970  0.60556788     0.11700
C1709       C  0.07763283  0.17557611  0.56147883    -0.14500
C1710       C  0.07188673  0.20799695  0.57213093     0.07700
C1711       C  0.11195780  0.23971967  0.58224468    -0.14500
C1712       C  0.15596550  0.23788406  0.58220138    -0.14500
C1713       C  0.16129036  0.20427638  0.57203587     0.07700
C1714       C  0.12205640  0.17374081  0.56142956    -0.14500
H1715       H  0.04748724  0.15087871  0.55346746     0.11700
H1716       H  0.10923581  0.26573091  0.59042722     0.11700
H1717       H  0.18564104  0.26253414  0.59037144     0.11700
H1718       H  0.12518981  0.14764625  0.55340617     0.11700
C1719       C  0.01634163  0.33390791  0.50887458    -0.14500
C1720       C  0.99790761  0.28552387  0.51540701     0.07700
C1721       C  0.01235840  0.25355422  0.50809994    -0.14500
C1722       C  0.04423766  0.26918749  0.49471663    -0.14500
C1723       C  0.06269802  0.31731229  0.48808593     0.07700
C1724       C  0.04840952  0.34963841  0.49532916    -0.14500
H1725       H  0.00612874  0.35960358  0.51422899     0.11700
H1726       H  0.99912630  0.21607814  0.51272890     0.11700
H1727       H  0.05413324  0.24308167  0.48951137     0.11700
H1728       H  0.06186740  0.38696975  0.49052489     0.11700
loop_ 
_geom_bond_atom_site_label_1 
_geom_bond_atom_site_label_2 
_geom_bond_distance 
_geom_bond_site_symmetry_2 
_ccdc_geom_bond_type 
Zr1           O2   2.439       .  S
Zr1           O3   2.427       .  S
Zr1           O4   2.426       .  S
Zr1           O7   2.432       .  S
Zr1           O9   2.378       .  S
Zr1          O10   2.379       .  S
Zr1          O11   2.407       .  S
Zr1          O12   2.397       .  S
O2           H58   0.990       .  S
O2           H66   0.990       .  S
O3           C23   1.283   1_655  A
O4           C25   1.285       .  A
O5          Zr15   2.423       .  S
O5           C24   1.283       .  A
O6          Zr14   2.438       .  S
O6           C25   1.286       .  A
O7           C24   1.284       .  A
O8          Zr16   2.414   1_455  S
O8           C23   1.282       .  A
O9          Zr14   2.385       .  S
O9          Zr16   2.361       .  S
O10         Zr15   2.386       .  S
O10         Zr16   2.381       .  S
O10          H45   0.966       .  S
O11         Zr14   2.398       .  S
O11         Zr31   2.399       .  S
O11          H48   0.967       .  S
O12         Zr15   2.381       .  S
O12         Zr31   2.394       .  S
Zr13         O38   2.442       .  S
Zr13         O32   2.456       .  S
Zr13         O40   2.464       .  S
Zr13         O28   2.444       .  S
Zr13         O19   2.393       .  S
Zr13         O20   2.419       .  S
Zr13         O21   2.389       .  S
Zr13         O22   2.389       .  S
Zr14         O33   2.435       .  S
Zr14         O26   2.434       .  S
Zr14         O27   2.418       .  S
Zr14         O20   2.400       .  S
Zr14         O21   2.395       .  S
Zr15         O17   2.435       .  S
Zr15         O39   2.441       .  S
Zr15         O41   2.409       .  S
Zr15         O19   2.385       .  S
Zr15         O22   2.392       .  S
Zr16         O42   2.434       .  S
Zr16         O43   2.435       .  S
Zr16         O18   2.439   1_655  S
Zr16         O19   2.381       .  S
Zr16         O20   2.397       .  S
O17          H54   0.990       .  S
O18          H49   0.990       .  S
O18          H63   0.990       .  S
O20          H46   0.965       .  S
O21         Zr31   2.378       .  S
O22         Zr31   2.392       .  S
O22          H47   0.965       .  S
C23        C1710   1.478       .  S
C24        C1693   1.481       .  S
C25        C1720   1.487       .  S
O26          H62   0.990       .  S
O27          C29   1.283       .  A
O28          C29   1.284       .  A
C29        C1680   1.481       .  S
O30         Zr31   2.440       .  S
O30          H59   0.990       .  S
Zr31         O34   2.440       .  S
Zr31         O35   2.440       .  S
Zr31         O36   2.413       .  S
O32          C37   1.287       .  A
O33          H50   0.990       .  S
O33          H65   0.990       .  S
O34          H51   0.990       .  S
O35          H55   0.990       .  S
O35          H64   0.989       .  S
O36          C37   1.281       .  A
C37        C1700   1.490       .  S
O38          H57   0.991       .  S
O38          H61   0.990       .  S
O39          H53   0.990       .  S
O39          H60   0.990       .  S
O40          C44   1.290       .  A
O41          C44   1.280       .  A
O42          H52   0.990       .  S
O43          H56   0.990       .  S
C44        C1670   1.481       .  S
Zr67         O68   2.437       .  S
Zr67         O69   2.420       .  S
Zr67         O70   2.427       .  S
Zr67         O73   2.428       .  S
Zr67         O75   2.380       .  S
Zr67         O76   2.382       .  S
Zr67         O77   2.400       .  S
Zr67         O78   2.397       .  S
O68         H124   0.990       .  S
O68         H132   0.990       .  S
O69          C89   1.282       .  A
O70          C91   1.285       .  A
O71         Zr81   2.418       .  S
O71          C90   1.282       .  A
O72         Zr80   2.438       .  S
O72          C91   1.286       .  A
O73          C90   1.284       .  A
O74         Zr82   2.418       .  S
O74          C89   1.282       .  A
O75         Zr80   2.385       .  S
O75         Zr82   2.366       .  S
O76         Zr81   2.387       .  S
O76         Zr82   2.379       .  S
O76         H111   0.965       .  S
O77         Zr80   2.393       .  S
O77         Zr97   2.396       .  S
O77         H114   0.967       .  S
O78         Zr81   2.382       .  S
O78         Zr97   2.390       .  S
Zr79        O104   2.440       .  S
Zr79         O98   2.454       .  S
Zr79        O106   2.469       .  S
Zr79         O94   2.452       .  S
Zr79         O85   2.392       .  S
Zr79         O86   2.422       .  S
Zr79         O87   2.387       .  S
Zr79         O88   2.391       .  S
Zr80         O99   2.434       .  S
Zr80         O92   2.434       .  S
Zr80         O93   2.422       .  S
Zr80         O86   2.403       .  S
Zr80         O87   2.392       .  S
Zr81         O83   2.435       .  S
Zr81        O105   2.440       .  S
Zr81        O107   2.415       .  S
Zr81         O85   2.378       .  S
Zr81         O88   2.392       .  S
Zr82        O108   2.437       .  S
Zr82        O109   2.436       .  S
Zr82         O84   2.436       .  S
Zr82         O85   2.376       .  S
Zr82         O86   2.400       .  S
O83         H120   0.990       .  S
O84         H115   0.991       .  S
O84         H129   0.990       .  S
O86         H112   0.966       .  S
O87         Zr97   2.380       .  S
O88         Zr97   2.395       .  S
O88         H113   0.967       .  S
C89        C1660   1.477   1_455  S
C90        C1633   1.479       .  S
C91        C1723   1.488       .  S
O92         H128   0.990       .  S
O93          C95   1.284       .  A
O94          C95   1.286       .  A
C95        C1640   1.487       .  S
O96         Zr97   2.442       .  S
O96         H125   0.990       .  S
Zr97        O100   2.438       .  S
Zr97        O101   2.441       .  S
Zr97        O102   2.401       .  S
O98         C103   1.287       .  A
O99         H116   0.990       .  S
O99         H131   0.990       .  S
O100        H117   0.990       .  S
O101        H121   0.990       .  S
O101        H130   0.989       .  S
O102        C103   1.279       .  A
C103       C1653   1.484       .  S
O104        H123   0.990       .  S
O104        H127   0.990       .  S
O105        H119   0.990       .  S
O105        H126   0.990       .  S
O106        C110   1.291       .  A
O107        C110   1.281       .  A
O108        H118   0.991       .  S
O109        H122   0.990       .  S
C110       C1620   1.483       .  S
Zr133       O134   2.437       .  S
Zr133       O135   2.420       .  S
Zr133       O136   2.430       .  S
Zr133       O139   2.425       .  S
Zr133       O141   2.379       .  S
Zr133       O142   2.382       .  S
Zr133       O143   2.402       .  S
Zr133       O144   2.402       .  S
O134        H190   0.990       .  S
O134        H198   0.990       .  S
O135        C155   1.282   1_565  A
O136        C157   1.286       .  A
O137       Zr147   2.418       .  S
O137        C156   1.282       .  A
O138       Zr146   2.446       .  S
O138        C157   1.288       .  A
O139        C156   1.283       .  A
O140       Zr148   2.425   1_545  S
O140        C155   1.284       .  A
O141       Zr146   2.381       .  S
O141       Zr148   2.365       .  S
O142       Zr147   2.388       .  S
O142       Zr148   2.381       .  S
O142        H177   0.966       .  S
O143       Zr146   2.390       .  S
O143       Zr163   2.402       .  S
O143        H180   0.967       .  S
O144       Zr147   2.376       .  S
O144       Zr163   2.393       .  S
Zr145       O170   2.441       .  S
Zr145       O164   2.448       .  S
Zr145       O172   2.482       .  S
Zr145       O160   2.444       .  S
Zr145       O151   2.389       .  S
Zr145       O152   2.423       .  S
Zr145       O153   2.391       .  S
Zr145       O154   2.391       .  S
Zr146       O165   2.434       .  S
Zr146       O158   2.435       .  S
Zr146       O159   2.416       .  S
Zr146       O152   2.402       .  S
Zr146       O153   2.394       .  S
Zr147       O149   2.438       .  S
Zr147       O171   2.441       .  S
Zr147       O173   2.400       .  S
Zr147       O151   2.388       .  S
Zr147       O154   2.389       .  S
Zr148       O174   2.436       .  S
Zr148       O175   2.437       .  S
Zr148       O150   2.439   1_565  S
Zr148       O151   2.378       .  S
Zr148       O152   2.403       .  S
O149        H186   0.990       .  S
O150        H181   0.990       .  S
O150        H195   0.990       .  S
O152        H178   0.965       .  S
O153       Zr163   2.378       .  S
O154       Zr163   2.392       .  S
O154        H179   0.966       .  S
C155       C1630   1.479       .  S
C156       C1590   1.479   1_455  S
C157       C1610   1.491   1_565  S
O158        H194   0.990       .  S
O159        C161   1.283       .  A
O160        C161   1.285       .  A
C161       C1600   1.484       .  S
O162       Zr163   2.441       .  S
O162        H191   0.990       .  S
Zr163       O166   2.435       .  S
Zr163       O167   2.441       .  S
Zr163       O168   2.417       .  S
O164        C169   1.285       .  A
O165        H182   0.990       .  S
O165        H197   0.990       .  S
O166        H183   0.990       .  S
O167        H187   0.991       .  S
O167        H196   0.989       .  S
O168        C169   1.282       .  A
C169       C1643   1.487       .  S
O170        H189   0.990       .  S
O170        H193   0.990       .  S
O171        H185   0.990       .  S
O171        H192   0.990       .  S
O172        C176   1.292       .  A
O173        C176   1.278       .  A
O174        H184   0.990   1_565  S
O175        H188   0.990       .  S
C176       C1580   1.480       .  S
Zr199       O200   2.439       .  S
Zr199       O201   2.426       .  S
Zr199       O202   2.420       .  S
Zr199       O205   2.426       .  S
Zr199       O207   2.380       .  S
Zr199       O208   2.380       .  S
Zr199       O209   2.402       .  S
Zr199       O210   2.399       .  S
O200        H256   0.990       .  S
O200        H264   0.990       .  S
O201        C221   1.283       .  A
O202        C223   1.283       .  A
O203       Zr213   2.414       .  S
O203        C222   1.281       .  A
O204       Zr212   2.449       .  S
O204        C223   1.288       .  A
O205        C222   1.283       .  A
O206       Zr214   2.422       .  S
O206        C221   1.283       .  A
O207       Zr212   2.386       .  S
O207       Zr214   2.365       .  S
O208       Zr213   2.386       .  S
O208       Zr214   2.380       .  S
O208        H243   0.966       .  S
O209       Zr212   2.396       .  S
O209       Zr229   2.401       .  S
O209        H246   0.967       .  S
O210       Zr213   2.381       .  S
O210       Zr229   2.391       .  S
Zr211       O236   2.441       .  S
Zr211       O230   2.456       .  S
Zr211       O238   2.488       .  S
Zr211       O226   2.449       .  S
Zr211       O217   2.389       .  S
Zr211       O218   2.424       .  S
Zr211       O219   2.389       .  S
Zr211       O220   2.391       .  S
Zr212       O231   2.435       .  S
Zr212       O224   2.434       .  S
Zr212       O225   2.430       .  S
Zr212       O218   2.403       .  S
Zr212       O219   2.394       .  S
Zr213       O215   2.437       .  S
Zr213       O237   2.440       .  S
Zr213       O239   2.400       .  S
Zr213       O217   2.384       .  S
Zr213       O220   2.395       .  S
Zr214       O240   2.435       .  S
Zr214       O241   2.434       .  S
Zr214       O216   2.435       .  S
Zr214       O217   2.375       .  S
Zr214       O218   2.398       .  S
O215        H252   0.990       .  S
O216        H247   0.990       .  S
O216        H261   0.990       .  S
O218        H244   0.966       .  S
O219       Zr229   2.380       .  S
O220       Zr229   2.392       .  S
O220        H245   0.966       .  S
C221       C1560   1.481   1_545  S
C222       C1713   1.477       .  S
C223       C1613   1.490       .  S
O224        H260   0.989       .  S
O225        C227   1.286       .  A
O226        C227   1.286       .  A
C227       C1703   1.489       .  S
O228       Zr229   2.440       .  S
O228        H257   0.990       .  S
Zr229       O232   2.437       .  S
Zr229       O233   2.442       .  S
Zr229       O234   2.407       .  S
O230        C235   1.287       .  A
O231        H248   0.990       .  S
O231        H263   0.990       .  S
O232        H249   0.990       .  S
O233        H253   0.990       .  S
O233        H262   0.989       .  S
O234        C235   1.280       .  A
C235       C1570   1.487       .  S
O236        H255   0.990       .  S
O236        H259   0.990       .  S
O237        H251   0.990       .  S
O237        H258   0.990       .  S
O238        C242   1.294       .  A
O239        C242   1.278       .  A
O240        H250   0.990       .  S
O241        H254   0.990       .  S
C242       C1550   1.482       .  S
Zr265       O266   2.440       .  S
Zr265       O267   2.430       .  S
Zr265       O268   2.428       .  S
Zr265       O271   2.428       .  S
Zr265       O273   2.380       .  S
Zr265       O274   2.381       .  S
Zr265       O275   2.404       .  S
Zr265       O276   2.401       .  S
O266        H322   0.990       .  S
O266        H330   0.990       .  S
O267        C287   1.284       .  A
O268        C289   1.285       .  A
O269       Zr279   2.420   1_545  S
O269        C288   1.282       .  A
O270       Zr278   2.434       .  S
O270        C289   1.285       .  A
O271        C288   1.284   1_565  A
O272       Zr280   2.414       .  S
O272        C287   1.282       .  A
O273       Zr278   2.385       .  S
O273       Zr280   2.365       .  S
O274       Zr279   2.388       .  S
O274       Zr280   2.380       .  S
O274        H309   0.969       .  S
O275       Zr278   2.391       .  S
O275       Zr295   2.402       .  S
O275        H312   0.963       .  S
O276       Zr279   2.376       .  S
O276       Zr295   2.391       .  S
Zr277       O302   2.443       .  S
Zr277       O296   2.448       .  S
Zr277       O304   2.479       .  S
Zr277       O292   2.445       .  S
Zr277       O283   2.390       .  S
Zr277       O284   2.418       .  S
Zr277       O285   2.387       .  S
Zr277       O286   2.389       .  S
Zr278       O297   2.437       .  S
Zr278       O290   2.434       .  S
Zr278       O291   2.417       .  S
Zr278       O284   2.403       .  S
Zr278       O285   2.390       .  S
Zr279       O281   2.435   1_565  S
Zr279       O303   2.441   1_565  S
Zr279       O305   2.401       .  S
Zr279       O283   2.389       .  S
Zr279       O286   2.391       .  S
Zr280       O306   2.433       .  S
Zr280       O307   2.433       .  S
Zr280       O282   2.437       .  S
Zr280       O283   2.373       .  S
Zr280       O284   2.397       .  S
O281        H318   0.990       .  S
O282        H313   0.990       .  S
O282        H327   0.990       .  S
O284        H310   0.967       .  S
O285       Zr295   2.375       .  S
O286       Zr295   2.390       .  S
O286        H311   0.954       .  S
C287       C1593   1.481       .  S
C288       C1663   1.478       .  S
C289       C1540   1.485       .  S
O290        H326   0.990       .  S
O291        C293   1.283       .  A
O292        C293   1.286       .  A
C293       C1650   1.483       .  S
O294       Zr295   2.439       .  S
O294        H323   0.990       .  S
Zr295       O298   2.436       .  S
Zr295       O299   2.441       .  S
Zr295       O300   2.410       .  S
O296        C301   1.286       .  A
O297        H314   0.990       .  S
O297        H329   0.990       .  S
O298        H315   0.990       .  S
O299        H319   0.990       .  S
O299        H328   0.989       .  S
O300        C301   1.281       .  A
C301       C1603   1.485       .  S
O302        H321   0.991       .  S
O302        H325   0.991       .  S
O303        H317   0.990       .  S
O303        H324   0.990   1_545  S
O304        C308   1.292       .  A
O305        C308   1.279       .  A
O306        H316   0.990       .  S
O307        H320   0.990       .  S
C308       C1530   1.480       .  S
Zr331       O332   2.439       .  S
Zr331       O333   2.429       .  S
Zr331       O334   2.418       .  S
Zr331       O337   2.428       .  S
Zr331       O339   2.383       .  S
Zr331       O340   2.380       .  S
Zr331       O341   2.407       .  S
Zr331       O342   2.398       .  S
O332        H388   0.990       .  S
O332        H396   0.990       .  S
O333        C353   1.283       .  A
O334        C355   1.283       .  A
O335       Zr345   2.421   1_455  S
O335        C354   1.282       .  A
O336       Zr344   2.442       .  S
O336        C355   1.287       .  A
O337        C354   1.284   1_655  A
O338       Zr346   2.426       .  S
O338        C353   1.284       .  A
O339       Zr344   2.388       .  S
O339       Zr346   2.367       .  S
O340       Zr345   2.389       .  S
O340       Zr346   2.380       .  S
O340        H375   0.966       .  S
O341       Zr344   2.395       .  S
O341       Zr361   2.398       .  S
O341        H378   0.967       .  S
O342       Zr345   2.382       .  S
O342       Zr361   2.391       .  S
Zr343       O368   2.443       .  S
Zr343       O362   2.448       .  S
Zr343       O370   2.472       .  S
Zr343       O358   2.447       .  S
Zr343       O349   2.392       .  S
Zr343       O350   2.420       .  S
Zr343       O351   2.387       .  S
Zr343       O352   2.392       .  S
Zr344       O363   2.436       .  S
Zr344       O356   2.433       .  S
Zr344       O357   2.419       .  S
Zr344       O350   2.400       .  S
Zr344       O351   2.392       .  S
Zr345       O347   2.436   1_655  S
Zr345       O369   2.441       .  S
Zr345       O371   2.407       .  S
Zr345       O349   2.389       .  S
Zr345       O352   2.392       .  S
Zr346       O372   2.433       .  S
Zr346       O373   2.435       .  S
Zr346       O348   2.438       .  S
Zr346       O349   2.381       .  S
Zr346       O350   2.398       .  S
O347        H384   0.990       .  S
O348        H379   0.991       .  S
O348        H393   0.990       .  S
O350        H376   0.965       .  S
O351       Zr361   2.377       .  S
O352       Zr361   2.392       .  S
O352        H377   0.967       .  S
C353       C1690   1.483       .  S
C354       C1563   1.481       .  S
C355       C1543   1.485       .  S
O356        H392   0.989       .  S
O357        C359   1.283       .  A
O358        C359   1.286       .  A
C359       C1573   1.485       .  S
O360       Zr361   2.440       .  S
O360        H389   0.990       .  S
Zr361       O364   2.437       .  S
Zr361       O365   2.439       .  S
Zr361       O366   2.401       .  S
O362        C367   1.286       .  A
O363        H380   0.990       .  S
O363        H395   0.990       .  S
O364        H381   0.990       .  S
O365        H385   0.990       .  S
O365        H394   0.990   1_655  S
O366        C367   1.279       .  A
C367       C1683   1.480       .  S
O368        H387   0.991       .  S
O368        H391   0.991       .  S
O369        H383   0.991   1_655  S
O369        H390   0.990       .  S
O370        C374   1.290       .  A
O371        C374   1.280       .  A
O372        H382   0.990       .  S
O373        H386   0.990       .  S
C374       C1520   1.479       .  S
Zr397       O398   2.439       .  S
Zr397       O399   2.431       .  S
Zr397       O400   2.425       .  S
Zr397       O403   2.433       .  S
Zr397       O405   2.380       .  S
Zr397       O406   2.375       .  S
Zr397       O407   2.405       .  S
Zr397       O408   2.399       .  S
O398        H454   0.990       .  S
O398        H462   0.990       .  S
O399        C419   1.284       .  A
O400        C421   1.285       .  A
O401       Zr411   2.411       .  S
O401        C420   1.281       .  A
O402       Zr410   2.434   1_455  S
O402        C421   1.285       .  A
O403        C420   1.285       .  A
O404       Zr412   2.423       .  S
O404        C419   1.284       .  A
O405       Zr410   2.386   1_455  S
O405       Zr412   2.361       .  S
O406       Zr411   2.383       .  S
O406       Zr412   2.377       .  S
O406        H441   0.966       .  S
O407       Zr410   2.395   1_455  S
O407       Zr427   2.399   1_455  S
O407        H444   0.965       .  S
O408       Zr411   2.383       .  S
O408       Zr427   2.392   1_455  S
Zr409       O434   2.441       .  S
Zr409       O428   2.451       .  S
Zr409       O436   2.474       .  S
Zr409       O424   2.440       .  S
Zr409       O415   2.386   1_655  S
Zr409       O416   2.422       .  S
Zr409       O417   2.388       .  S
Zr409       O418   2.387       .  S
Zr410       O429   2.436       .  S
Zr410       O422   2.436       .  S
Zr410       O423   2.422       .  S
Zr410       O416   2.405       .  S
Zr410       O417   2.391       .  S
Zr411       O413   2.436       .  S
Zr411       O435   2.440       .  S
Zr411       O437   2.402       .  S
Zr411       O415   2.381       .  S
Zr411       O418   2.390   1_455  S
Zr412       O438   2.434       .  S
Zr412       O439   2.435       .  S
Zr412       O414   2.437       .  S
Zr412       O415   2.378       .  S
Zr412       O416   2.401   1_455  S
O413        H450   0.990       .  S
O414        H445   0.990       .  S
O414        H459   0.990       .  S
O416        H442   0.966       .  S
O417       Zr427   2.378       .  S
O418       Zr427   2.393       .  S
O418        H443   0.961       .  S
C419       C1470   1.483       .  S
C420       C1490   1.478       .  S
C421       C1510   1.484       .  S
O422        H458   0.990       .  S
O423        C425   1.284       .  A
O424        C425   1.284       .  A
C425       C1503   1.484       .  S
O426       Zr427   2.440   1_455  S
O426        H455   0.990   1_455  S
Zr427       O430   2.438       .  S
Zr427       O431   2.441       .  S
Zr427       O432   2.402       .  S
O428        C433   1.286       .  A
O429        H446   0.990       .  S
O429        H461   0.990       .  S
O430        H447   0.990       .  S
O431        H451   0.990       .  S
O431        H460   0.989       .  S
O432        C433   1.279       .  A
C433       C1480   1.484       .  S
O434        H453   0.991       .  S
O434        H457   0.990       .  S
O435        H449   0.990       .  S
O435        H456   0.990       .  S
O436        C440   1.292   1_655  A
O437        C440   1.279       .  A
O438        H448   0.990       .  S
O439        H452   0.990       .  S
C440       C1463   1.482       .  S
Zr463       O464   2.439       .  S
Zr463       O465   2.422       .  S
Zr463       O466   2.428       .  S
Zr463       O469   2.432       .  S
Zr463       O471   2.381       .  S
Zr463       O472   2.382       .  S
Zr463       O473   2.403       .  S
Zr463       O474   2.397       .  S
O464        H520   0.990       .  S
O464        H528   0.990       .  S
O465        C485   1.282       .  A
O466        C487   1.285       .  A
O467       Zr477   2.422       .  S
O467        C486   1.283       .  A
O468       Zr476   2.435       .  S
O468        C487   1.285       .  A
O469        C486   1.284       .  A
O470       Zr478   2.413       .  S
O470        C485   1.282       .  A
O471       Zr476   2.386       .  S
O471       Zr478   2.365       .  S
O472       Zr477   2.385       .  S
O472       Zr478   2.380       .  S
O472        H507   0.966       .  S
O473       Zr476   2.394       .  S
O473       Zr493   2.397       .  S
O473        H510   0.967       .  S
O474       Zr477   2.378       .  S
O474       Zr493   2.389       .  S
Zr475       O500   2.442       .  S
Zr475       O494   2.448       .  S
Zr475       O502   2.470       .  S
Zr475       O490   2.434       .  S
Zr475       O481   2.389       .  S
Zr475       O482   2.416       .  S
Zr475       O483   2.387       .  S
Zr475       O484   2.391       .  S
Zr476       O495   2.436       .  S
Zr476       O488   2.435       .  S
Zr476       O489   2.418       .  S
Zr476       O482   2.397       .  S
Zr476       O483   2.387       .  S
Zr477       O479   2.435       .  S
Zr477       O501   2.439       .  S
Zr477       O503   2.404       .  S
Zr477       O481   2.388       .  S
Zr477       O484   2.391       .  S
Zr478       O504   2.434       .  S
Zr478       O505   2.435       .  S
Zr478       O480   2.436       .  S
Zr478       O481   2.375       .  S
Zr478       O482   2.391       .  S
O479        H516   0.990       .  S
O480        H511   0.990       .  S
O480        H525   0.990       .  S
O482        H508   0.965       .  S
O483       Zr493   2.375       .  S
O484       Zr493   2.391       .  S
O484        H509   0.967       .  S
C485       C1430   1.477       .  S
C486       C1453   1.483       .  S
C487       C1513   1.486       .  S
O488        H524   0.990       .  S
O489        C491   1.284       .  A
O490        C491   1.283       .  A
C491       C1440   1.480   1_455  S
O492       Zr493   2.439       .  S
O492        H521   0.990       .  S
Zr493       O496   2.438       .  S
Zr493       O497   2.439       .  S
Zr493       O498   2.401       .  S
O494        C499   1.286       .  A
O495        H512   0.990       .  S
O495        H527   0.990       .  S
O496        H513   0.990       .  S
O497        H517   0.990       .  S
O497        H526   0.990       .  S
O498        C499   1.279       .  A
C499       C1423   1.483       .  S
O500        H519   0.990       .  S
O500        H523   0.991       .  S
O501        H515   0.990       .  S
O501        H522   0.990       .  S
O502        C506   1.291       .  A
O503        C506   1.279       .  A
O504        H514   0.991       .  S
O505        H518   0.990       .  S
C506       C1623   1.479       .  S
Zr529       O530   2.436       .  S
Zr529       O531   2.425       .  S
Zr529       O532   2.426       .  S
Zr529       O535   2.428       .  S
Zr529       O537   2.378       .  S
Zr529       O538   2.377       .  S
Zr529       O539   2.402       .  S
Zr529       O540   2.397       .  S
O530        H586   0.990       .  S
O530        H594   0.990       .  S
O531        C551   1.282       .  A
O532        C553   1.285       .  A
O533       Zr543   2.421       .  S
O533        C552   1.282       .  A
O534       Zr542   2.440       .  S
O534        C553   1.286       .  A
O535        C552   1.284       .  A
O536       Zr544   2.419       .  S
O536        C551   1.283       .  A
O537       Zr542   2.384       .  S
O537       Zr544   2.364       .  S
O538       Zr543   2.385       .  S
O538       Zr544   2.379       .  S
O538        H573   0.967       .  S
O539       Zr542   2.392       .  S
O539       Zr559   2.396       .  S
O539        H576   0.965       .  S
O540       Zr543   2.379       .  S
O540       Zr559   2.389       .  S
Zr541       O566   2.443       .  S
Zr541       O560   2.450   1_565  S
Zr541       O568   2.472       .  S
Zr541       O556   2.455       .  S
Zr541       O547   2.392       .  S
Zr541       O548   2.421       .  S
Zr541       O549   2.385       .  S
Zr541       O550   2.391       .  S
Zr542       O561   2.436       .  S
Zr542       O554   2.436       .  S
Zr542       O555   2.413       .  S
Zr542       O548   2.405       .  S
Zr542       O549   2.393       .  S
Zr543       O545   2.436       .  S
Zr543       O567   2.440       .  S
Zr543       O569   2.405       .  S
Zr543       O547   2.387       .  S
Zr543       O550   2.392       .  S
Zr544       O570   2.435       .  S
Zr544       O571   2.435       .  S
Zr544       O546   2.437       .  S
Zr544       O547   2.379       .  S
Zr544       O548   2.399       .  S
O545        H582   0.990   1_565  S
O546        H577   0.990       .  S
O546        H591   0.990       .  S
O548        H574   0.967       .  S
O549       Zr559   2.375       .  S
O550       Zr559   2.392       .  S
O550        H575   0.963       .  S
C551       C1450   1.481       .  S
C552       C1400   1.481       .  S
C553       C1410   1.488       .  S
O554        H590   0.990       .  S
O555        C557   1.282       .  A
O556        C557   1.287       .  A
C557       C1390   1.484       .  S
O558       Zr559   2.438       .  S
O558        H587   0.990   1_565  S
Zr559       O562   2.436       .  S
Zr559       O563   2.440   1_565  S
Zr559       O564   2.403   1_565  S
O560        C565   1.286       .  A
O561        H578   0.990       .  S
O561        H593   0.990       .  S
O562        H579   0.990   1_565  S
O563        H583   0.990       .  S
O563        H592   0.990       .  S
O564        C565   1.280       .  A
C565       C1443   1.483       .  S
O566        H585   0.990       .  S
O566        H589   0.991       .  S
O567        H581   0.990       .  S
O567        H588   0.990       .  S
O568        C572   1.292       .  A
O569        C572   1.280       .  A
O570        H580   0.990       .  S
O571        H584   0.990       .  S
C572       C1533   1.479       .  S
Zr595       O596   2.440       .  S
Zr595       O597   2.426       .  S
Zr595       O598   2.421       .  S
Zr595       O601   2.425       .  S
Zr595       O603   2.379       .  S
Zr595       O604   2.379       .  S
Zr595       O605   2.401       .  S
Zr595       O606   2.401       .  S
O596        H652   0.990       .  S
O596        H660   0.990       .  S
O597        C617   1.284       .  A
O598        C619   1.284       .  A
O599       Zr609   2.426       .  S
O599        C618   1.284       .  A
O600       Zr608   2.446       .  S
O600        C619   1.287       .  A
O601        C618   1.284       .  A
O602       Zr610   2.414       .  S
O602        C617   1.282       .  A
O603       Zr608   2.379       .  S
O603       Zr610   2.367       .  S
O604       Zr609   2.378       .  S
O604       Zr610   2.376       .  S
O604        H639   0.965       .  S
O605       Zr608   2.390       .  S
O605       Zr625   2.400       .  S
O605        H642   0.967       .  S
O606       Zr609   2.381       .  S
O606       Zr625   2.395       .  S
Zr607       O632   2.443       .  S
Zr607       O626   2.442       .  S
Zr607       O634   2.479       .  S
Zr607       O622   2.448       .  S
Zr607       O613   2.394       .  S
Zr607       O614   2.420       .  S
Zr607       O615   2.389       .  S
Zr607       O616   2.391       .  S
Zr608       O627   2.435       .  S
Zr608       O620   2.435       .  S
Zr608       O621   2.412       .  S
Zr608       O614   2.405       .  S
Zr608       O615   2.395       .  S
Zr609       O611   2.432       .  S
Zr609       O633   2.439       .  S
Zr609       O635   2.404       .  S
Zr609       O613   2.393       .  S
Zr609       O616   2.393       .  S
Zr610       O636   2.434       .  S
Zr610       O637   2.435       .  S
Zr610       O612   2.436       .  S
Zr610       O613   2.380       .  S
Zr610       O614   2.397       .  S
O611        H648   0.990       .  S
O612        H643   0.990       .  S
O612        H657   0.990       .  S
O614        H640   0.965       .  S
O615       Zr625   2.374       .  S
O616       Zr625   2.390       .  S
O616        H641   0.967       .  S
C617       C1370   1.477       .  S
C618       C1473   1.481       .  S
C619       C1413   1.488       .  S
O620        H656   0.990       .  S
O621        C623   1.283       .  A
O622        C623   1.287       .  A
C623       C1483   1.484       .  S
O624       Zr625   2.440       .  S
O624        H653   0.990       .  S
Zr625       O628   2.436       .  S
Zr625       O629   2.441       .  S
Zr625       O630   2.407       .  S
O626        C631   1.284       .  A
O627        H644   0.990       .  S
O627        H659   0.990       .  S
O628        H645   0.990       .  S
O629        H649   0.991       .  S
O629        H658   0.989       .  S
O630        C631   1.280       .  A
C631       C1383   1.483       .  S
O632        H651   0.990       .  S
O632        H655   0.990       .  S
O633        H647   0.990       .  S
O633        H654   0.990       .  S
O634        C638   1.293       .  A
O635        C638   1.279       .  A
O636        H646   0.990       .  S
O637        H650   0.990       .  S
C638       C1360   1.486       .  S
Zr661       O662   2.439       .  S
Zr661       O663   2.418       .  S
Zr661       O664   2.432       .  S
Zr661       O667   2.425       .  S
Zr661       O669   2.377   1_565  S
Zr661       O670   2.383       .  S
Zr661       O671   2.396   1_565  S
Zr661       O672   2.401   1_565  S
O662        H718   0.990       .  S
O662        H726   0.990       .  S
O663        C683   1.282       .  A
O664        C685   1.285       .  A
O665       Zr675   2.419       .  S
O665        C684   1.283       .  A
O666       Zr674   2.437       .  S
O666        C685   1.286   1_545  A
O667        C684   1.284       .  A
O668       Zr676   2.418       .  S
O668        C683   1.283       .  A
O669       Zr674   2.380       .  S
O669       Zr676   2.364   1_545  S
O670       Zr675   2.389       .  S
O670       Zr676   2.378       .  S
O670        H705   0.964       .  S
O671       Zr674   2.391       .  S
O671       Zr691   2.396       .  S
O671        H708   0.968       .  S
O672       Zr675   2.386   1_545  S
O672       Zr691   2.389       .  S
Zr673       O698   2.439       .  S
Zr673       O692   2.451       .  S
Zr673       O700   2.480       .  S
Zr673       O688   2.447       .  S
Zr673       O679   2.390       .  S
Zr673       O680   2.417       .  S
Zr673       O681   2.386       .  S
Zr673       O682   2.390       .  S
Zr674       O693   2.436       .  S
Zr674       O686   2.436       .  S
Zr674       O687   2.413       .  S
Zr674       O680   2.402       .  S
Zr674       O681   2.387       .  S
Zr675       O677   2.436   1_565  S
Zr675       O699   2.440       .  S
Zr675       O701   2.418   1_565  S
Zr675       O679   2.388   1_565  S
Zr675       O682   2.390   1_565  S
Zr676       O702   2.434       .  S
Zr676       O703   2.435   1_565  S
Zr676       O678   2.436   1_565  S
Zr676       O679   2.381   1_565  S
Zr676       O680   2.395   1_565  S
O677        H714   0.990   1_545  S
O678        H709   0.990   1_545  S
O678        H723   0.990       .  S
O680        H706   0.966       .  S
O681       Zr691   2.373       .  S
O682       Zr691   2.390       .  S
O682        H707   0.968       .  S
C683       C1493   1.477       .  S
C684       C1373   1.477       .  S
C685       C1350   1.488       .  S
O686        H722   0.990       .  S
O687        C689   1.283       .  A
O688        C689   1.287       .  A
C689       C1380   1.483       .  S
O690       Zr691   2.440       .  S
O690        H719   0.990       .  S
Zr691       O694   2.438       .  S
Zr691       O695   2.440       .  S
Zr691       O696   2.403       .  S
O692        C697   1.286       .  A
O693        H710   0.990       .  S
O693        H725   0.990       .  S
O694        H711   0.990       .  S
O695        H715   0.990       .  S
O695        H724   0.989       .  S
O696        C697   1.280       .  A
C697       C1500   1.485       .  S
O698        H717   0.991       .  S
O698        H721   0.990       .  S
O699        H713   0.990       .  S
O699        H720   0.990       .  S
O700        C704   1.291       .  A
O701        C704   1.280       .  A
O702        H712   0.990       .  S
O703        H716   0.990       .  S
C704       C1340   1.479       .  S
Zr727       O728   2.441       .  S
Zr727       O729   2.431       .  S
Zr727       O730   2.416       .  S
Zr727       O733   2.422       .  S
Zr727       O735   2.377       .  S
Zr727       O736   2.381       .  S
Zr727       O737   2.402       .  S
Zr727       O738   2.402       .  S
O728        H784   0.991       .  S
O728        H792   0.991       .  S
O729        C749   1.284       .  A
O730        C751   1.282       .  A
O731       Zr741   2.415       .  S
O731        C750   1.281       .  A
O732       Zr740   2.446       .  S
O732        C751   1.287       .  A
O733        C750   1.283       .  A
O734       Zr742   2.418       .  S
O734        C749   1.283       .  A
O735       Zr740   2.383       .  S
O735       Zr742   2.362       .  S
O736       Zr741   2.390       .  S
O736       Zr742   2.382       .  S
O736        H771   0.966       .  S
O737       Zr740   2.396       .  S
O737       Zr757   2.398       .  S
O737        H774   0.967       .  S
O738       Zr741   2.381       .  S
O738       Zr757   2.392       .  S
Zr739       O764   2.442       .  S
Zr739       O758   2.449       .  S
Zr739       O766   2.473       .  S
Zr739       O754   2.443       .  S
Zr739       O745   2.387       .  S
Zr739       O746   2.422       .  S
Zr739       O747   2.387       .  S
Zr739       O748   2.391       .  S
Zr740       O759   2.433       .  S
Zr740       O752   2.434   1_565  S
Zr740       O753   2.421   1_565  S
Zr740       O746   2.404       .  S
Zr740       O747   2.393       .  S
Zr741       O743   2.436       .  S
Zr741       O765   2.439       .  S
Zr741       O767   2.407       .  S
Zr741       O745   2.379       .  S
Zr741       O748   2.388       .  S
Zr742       O768   2.436       .  S
Zr742       O769   2.435       .  S
Zr742       O744   2.435   1_565  S
Zr742       O745   2.374       .  S
Zr742       O746   2.400       .  S
O743        H780   0.990       .  S
O744        H775   0.990       .  S
O744        H789   0.990       .  S
O746        H772   0.966       .  S
O747       Zr757   2.376       .  S
O748       Zr757   2.393       .  S
O748        H773   0.966       .  S
C749       C1403   1.483       .  S
C750       C1433   1.477       .  S
C751       C1353   1.487       .  S
O752        H788   0.990       .  S
O753        C755   1.284       .  A
O754        C755   1.284   1_565  A
C755       C1420   1.484       .  S
O756       Zr757   2.441       .  S
O756        H785   0.990       .  S
Zr757       O760   2.438       .  S
Zr757       O761   2.441       .  S
Zr757       O762   2.407       .  S
O758        C763   1.286       .  A
O759        H776   0.990   1_565  S
O759        H791   0.990       .  S
O760        H777   0.990       .  S
O761        H781   0.990       .  S
O761        H790   0.989       .  S
O762        C763   1.281       .  A
C763       C1393   1.485   1_455  S
O764        H783   0.991       .  S
O764        H787   0.990       .  S
O765        H779   0.990       .  S
O765        H786   0.990       .  S
O766        C770   1.292       .  A
O767        C770   1.280       .  A
O768        H778   0.990       .  S
O769        H782   0.990       .  S
C770       C1583   1.479       .  S
Zr793       O794   2.438       .  S
Zr793       O795   2.419       .  S
Zr793       O796   2.423       .  S
Zr793       O799   2.426       .  S
Zr793       O801   2.380       .  S
Zr793       O802   2.379       .  S
Zr793       O803   2.400       .  S
Zr793       O804   2.398       .  S
O794        H850   0.990       .  S
O794        H858   0.990       .  S
O795        C815   1.282       .  A
O796        C817   1.284       .  A
O797       Zr807   2.411       .  S
O797        C816   1.280       .  A
O798       Zr806   2.444       .  S
O798        C817   1.287       .  A
O799        C816   1.284       .  A
O800       Zr808   2.421       .  S
O800        C815   1.283       .  A
O801       Zr806   2.384       .  S
O801       Zr808   2.366       .  S
O802       Zr807   2.384       .  S
O802       Zr808   2.376       .  S
O802        H837   0.965       .  S
O803       Zr806   2.393       .  S
O803       Zr823   2.399       .  S
O803        H840   0.968       .  S
O804       Zr807   2.379       .  S
O804       Zr823   2.388       .  S
Zr805       O830   2.438       .  S
Zr805       O824   2.451       .  S
Zr805       O832   2.472       .  S
Zr805       O820   2.452       .  S
Zr805       O811   2.391       .  S
Zr805       O812   2.419       .  S
Zr805       O813   2.385       .  S
Zr805       O814   2.387       .  S
Zr806       O825   2.435       .  S
Zr806       O818   2.436       .  S
Zr806       O819   2.415       .  S
Zr806       O812   2.406       .  S
Zr806       O813   2.396       .  S
Zr807       O809   2.437       .  S
Zr807       O831   2.441       .  S
Zr807       O833   2.397       .  S
Zr807       O811   2.381       .  S
Zr807       O814   2.391       .  S
Zr808       O834   2.436       .  S
Zr808       O835   2.435       .  S
Zr808       O810   2.434       .  S
Zr808       O811   2.378       .  S
Zr808       O812   2.399       .  S
O809        H846   0.990       .  S
O810        H841   0.990       .  S
O810        H855   0.990       .  S
O812        H838   0.966       .  S
O813       Zr823   2.379       .  S
O814       Zr823   2.388       .  S
O814        H839   0.968       .  S
C815       C1300   1.478       .  S
C816       C1320   1.476       .  S
C817       C1330   1.488       .  S
O818        H854   0.990       .  S
O819        C821   1.282       .  A
O820        C821   1.287       .  A
C821       C1310   1.484       .  S
O822       Zr823   2.440       .  S
O822        H851   0.990       .  S
Zr823       O826   2.437       .  S
Zr823       O827   2.442   1_655  S
Zr823       O828   2.409   1_655  S
O824        C829   1.286   1_655  A
O825        H842   0.990       .  S
O825        H857   0.990       .  S
O826        H843   0.990       .  S
O827        H847   0.990       .  S
O827        H856   0.990       .  S
O828        C829   1.281       .  A
C829       C1290   1.486       .  S
O830        H849   0.990       .  S
O830        H853   0.990       .  S
O831        H845   0.990       .  S
O831        H852   0.990       .  S
O832        C836   1.292       .  A
O833        C836   1.278       .  A
O834        H844   0.990       .  S
O835        H848   0.990       .  S
C836       C1523   1.479       .  S
Zr859       O860   2.438       .  S
Zr859       O861   2.427       .  S
Zr859       O862   2.426       .  S
Zr859       O865   2.425       .  S
Zr859       O867   2.378       .  S
Zr859       O868   2.381       .  S
Zr859       O869   2.405       .  S
Zr859       O870   2.405       .  S
O860        H916   0.991       .  S
O860        H924   0.990       .  S
O861        C881   1.283       .  A
O862        C883   1.284       .  A
O863       Zr873   2.410       .  S
O863        C882   1.280       .  A
O864       Zr872   2.443       .  S
O864        C883   1.287       .  A
O865        C882   1.283       .  A
O866       Zr874   2.414       .  S
O866        C881   1.282       .  A
O867       Zr872   2.383       .  S
O867       Zr874   2.364       .  S
O868       Zr873   2.390       .  S
O868       Zr874   2.381       .  S
O868        H903   0.966       .  S
O869       Zr872   2.387       .  S
O869       Zr889   2.401       .  S
O869        H906   0.967       .  S
O870       Zr873   2.380       .  S
O870       Zr889   2.395       .  S
Zr871       O896   2.440       .  S
Zr871       O890   2.451       .  S
Zr871       O898   2.476       .  S
Zr871       O886   2.444       .  S
Zr871       O877   2.385       .  S
Zr871       O878   2.422       .  S
Zr871       O879   2.389       .  S
Zr871       O880   2.392       .  S
Zr872       O891   2.435       .  S
Zr872       O884   2.433       .  S
Zr872       O885   2.420       .  S
Zr872       O878   2.406       .  S
Zr872       O879   2.392       .  S
Zr873       O875   2.437       .  S
Zr873       O897   2.441       .  S
Zr873       O899   2.407       .  S
Zr873       O877   2.377       .  S
Zr873       O880   2.391       .  S
Zr874       O900   2.434       .  S
Zr874       O901   2.434       .  S
Zr874       O876   2.436       .  S
Zr874       O877   2.374       .  S
Zr874       O878   2.397       .  S
O875        H912   0.990       .  S
O876        H907   0.990       .  S
O876        H921   0.990       .  S
O878        H904   0.965       .  S
O879       Zr889   2.373       .  S
O880       Zr889   2.394       .  S
O880        H905   0.966       .  S
C881       C1250   1.479       .  S
C882       C1270   1.476       .  S
C883       C1333   1.488       .  S
O884        H920   0.990       .  S
O885        C887   1.284       .  A
O886        C887   1.285       .  A
C887       C1280   1.485       .  S
O888       Zr889   2.439       .  S
O888        H917   0.990       .  S
Zr889       O892   2.437       .  S
Zr889       O893   2.439       .  S
Zr889       O894   2.416       .  S
O890        C895   1.287       .  A
O891        H908   0.990       .  S
O891        H923   0.990       .  S
O892        H909   0.990       .  S
O893        H913   0.990       .  S
O893        H922   0.990       .  S
O894        C895   1.282       .  A
C895       C1263   1.489       .  S
O896        H915   0.991       .  S
O896        H919   0.990       .  S
O897        H911   0.990       .  S
O897        H918   0.990       .  S
O898        C902   1.293       .  A
O899        C902   1.279       .  A
O900        H910   0.990       .  S
O901        H914   0.990       .  S
C902       C1363   1.481       .  S
Zr925       O926   2.438       .  S
Zr925       O927   2.426       .  S
Zr925       O928   2.423       .  S
Zr925       O931   2.427       .  S
Zr925       O933   2.377       .  S
Zr925       O934   2.378       .  S
Zr925       O935   2.404       .  S
Zr925       O936   2.400       .  S
O926        H982   0.990       .  S
O926        H990   0.990       .  S
O927        C947   1.283       .  A
O928        C949   1.284       .  A
O929       Zr939   2.415       .  S
O929        C948   1.281       .  A
O930       Zr938   2.444       .  S
O930        C949   1.287       .  A
O931        C948   1.284       .  A
O932       Zr940   2.418       .  S
O932        C947   1.283       .  A
O933       Zr938   2.385       .  S
O933       Zr940   2.363       .  S
O934       Zr939   2.387       .  S
O934       Zr940   2.379       .  S
O934        H969   0.967       .  S
O935       Zr938   2.392       .  S
O935       Zr955   2.399       .  S
O935        H972   0.965       .  S
O936       Zr939   2.384       .  S
O936       Zr955   2.392       .  S
Zr937       O962   2.440       .  S
Zr937       O956   2.450       .  S
Zr937       O964   2.477       .  S
Zr937       O952   2.444       .  S
Zr937       O943   2.388       .  S
Zr937       O944   2.423       .  S
Zr937       O945   2.388       .  S
Zr937       O946   2.388       .  S
Zr938       O957   2.437       .  S
Zr938       O950   2.433       .  S
Zr938       O951   2.417       .  S
Zr938       O944   2.407       .  S
Zr938       O945   2.390       .  S
Zr939       O941   2.434       .  S
Zr939       O963   2.440       .  S
Zr939       O965   2.405       .  S
Zr939       O943   2.383       .  S
Zr939       O946   2.392       .  S
Zr940       O966   2.436       .  S
Zr940       O967   2.437       .  S
Zr940       O942   2.436       .  S
Zr940       O943   2.378       .  S
Zr940       O944   2.402       .  S
O941        H978   0.990       .  S
O942        H973   0.990       .  S
O942        H987   0.990       .  S
O944        H970   0.965       .  S
O945       Zr955   2.376       .  S
O946       Zr955   2.395       .  S
O946        H971   0.964       .  S
C947       C1230   1.480       .  S
C948       C1303   1.477       .  S
C949       C1240   1.488       .  S
O950        H986   0.990       .  S
O951        C953   1.283       .  A
O952        C953   1.285       .  A
C953       C1293   1.483   1_545  S
O954       Zr955   2.441       .  S
O954        H983   0.990       .  S
Zr955       O958   2.438       .  S
Zr955       O959   2.440       .  S
Zr955       O960   2.406       .  S
O956        C961   1.286       .  A
O957        H974   0.990       .  S
O957        H989   0.990       .  S
O958        H975   0.990       .  S
O959        H979   0.990       .  S
O959        H988   0.989       .  S
O960        C961   1.280       .  A
C961       C1223   1.486       .  S
O962        H981   0.990       .  S
O962        H985   0.990       .  S
O963        H977   0.990       .  S
O963        H984   0.990       .  S
O964        C968   1.293       .  A
O965        C968   1.280       .  A
O966        H976   0.990       .  S
O967        H980   0.990       .  S
C968       C1553   1.484       .  S
Zr991       O992   2.438       .  S
Zr991       O993   2.419       .  S
Zr991       O994   2.430       .  S
Zr991       O997   2.428       .  S
Zr991       O999   2.379       .  S
Zr991      O1000   2.382       .  S
Zr991      O1001   2.400       .  S
Zr991      O1002   2.400       .  S
O992       H1048   0.990       .  S
O992       H1056   0.990       .  S
O993       C1013   1.282       .  A
O994       C1015   1.285       .  A
O995      Zr1005   2.414       .  S
O995       C1014   1.282       .  A
O996      Zr1004   2.437   1_545  S
O996       C1015   1.286       .  A
O997       C1014   1.285       .  A
O998      Zr1006   2.417       .  S
O998       C1013   1.283       .  A
O999      Zr1004   2.382   1_545  S
O999      Zr1006   2.366       .  S
O1000     Zr1005   2.386       .  S
O1000     Zr1006   2.376       .  S
O1000      H1035   0.965       .  S
O1001     Zr1004   2.389   1_545  S
O1001     Zr1021   2.396   1_545  S
O1001      H1038   0.967       .  S
O1002     Zr1005   2.381       .  S
O1002     Zr1021   2.389   1_545  S
Zr1003     O1028   2.440       .  S
Zr1003     O1022   2.460       .  S
Zr1003     O1030   2.493       .  S
Zr1003     O1018   2.445       .  S
Zr1003     O1009   2.391   1_565  S
Zr1003     O1010   2.422       .  S
Zr1003     O1011   2.393       .  S
Zr1003     O1012   2.388       .  S
Zr1004     O1023   2.436       .  S
Zr1004     O1016   2.435       .  S
Zr1004     O1017   2.413       .  S
Zr1004     O1010   2.402       .  S
Zr1004     O1011   2.390       .  S
Zr1005     O1007   2.436       .  S
Zr1005     O1029   2.438       .  S
Zr1005     O1031   2.409       .  S
Zr1005     O1009   2.389       .  S
Zr1005     O1012   2.389   1_545  S
Zr1006     O1032   2.434       .  S
Zr1006     O1033   2.435       .  S
Zr1006     O1008   2.437       .  S
Zr1006     O1009   2.383       .  S
Zr1006     O1010   2.392   1_545  S
O1007      H1044   0.990       .  S
O1008      H1039   0.990       .  S
O1008      H1053   0.990       .  S
O1010      H1036   0.965       .  S
O1011     Zr1021   2.376       .  S
O1012     Zr1021   2.391       .  S
O1012      H1037   0.967       .  S
C1013      C1273   1.477       .  S
C1014      C1213   1.479       .  S
C1015      C1243   1.488       .  S
O1016      H1052   0.990       .  S
O1017      C1019   1.283       .  A
O1018      C1019   1.286       .  A
C1019      C1200   1.480       .  S
O1020     Zr1021   2.435   1_545  S
O1020      H1049   0.990       .  S
Zr1021     O1024   2.436       .  S
Zr1021     O1025   2.438       .  S
Zr1021     O1026   2.401       .  S
O1022      C1027   1.288       .  A
O1023      H1040   0.990       .  S
O1023      H1055   0.990       .  S
O1024      H1041   0.990       .  S
O1025      H1045   0.990       .  S
O1025      H1054   0.990       .  S
O1026      C1027   1.279       .  A
C1027      C1283   1.487       .  S
O1028      H1047   0.990       .  S
O1028      H1051   0.990       .  S
O1029      H1043   0.990       .  S
O1029      H1050   0.990       .  S
O1030      C1034   1.295   1_565  A
O1031      C1034   1.279       .  A
O1032      H1042   0.990       .  S
O1033      H1046   0.990       .  S
C1034      C1343   1.484       .  S
Zr1057     O1058   2.438       .  S
Zr1057     O1059   2.425       .  S
Zr1057     O1060   2.432       .  S
Zr1057     O1063   2.429       .  S
Zr1057     O1065   2.379       .  S
Zr1057     O1066   2.379       .  S
Zr1057     O1067   2.404   1_655  S
Zr1057     O1068   2.398       .  S
O1058      H1114   0.990       .  S
O1058      H1122   0.990       .  S
O1059      C1079   1.283       .  A
O1060      C1081   1.285       .  A
O1061     Zr1071   2.414       .  S
O1061      C1080   1.281       .  A
O1062     Zr1070   2.435       .  S
O1062      C1081   1.285   1_455  A
O1063      C1080   1.284       .  A
O1064     Zr1072   2.415       .  S
O1064      C1079   1.282       .  A
O1065     Zr1070   2.384   1_655  S
O1065     Zr1072   2.371       .  S
O1066     Zr1071   2.383       .  S
O1066     Zr1072   2.376       .  S
O1066      H1101   0.966       .  S
O1067     Zr1070   2.393       .  S
O1067     Zr1087   2.402       .  S
O1067      H1104   0.967       .  S
O1068     Zr1071   2.380       .  S
O1068     Zr1087   2.389   1_655  S
Zr1069     O1094   2.441       .  S
Zr1069     O1088   2.442       .  S
Zr1069     O1096   2.482       .  S
Zr1069     O1084   2.454       .  S
Zr1069     O1075   2.390       .  S
Zr1069     O1076   2.418       .  S
Zr1069     O1077   2.390       .  S
Zr1069     O1078   2.392       .  S
Zr1070     O1089   2.437       .  S
Zr1070     O1082   2.434       .  S
Zr1070     O1083   2.406       .  S
Zr1070     O1076   2.400       .  S
Zr1070     O1077   2.393       .  S
Zr1071     O1073   2.436       .  S
Zr1071     O1095   2.440       .  S
Zr1071     O1097   2.401       .  S
Zr1071     O1075   2.389   1_655  S
Zr1071     O1078   2.392   1_655  S
Zr1072     O1098   2.435       .  S
Zr1072     O1099   2.436   1_655  S
Zr1072     O1074   2.435       .  S
Zr1072     O1075   2.377   1_655  S
Zr1072     O1076   2.397   1_655  S
O1073      H1110   0.990       .  S
O1074      H1105   0.990       .  S
O1074      H1119   0.990       .  S
O1076      H1102   0.966       .  S
O1077     Zr1087   2.376       .  S
O1078     Zr1087   2.390       .  S
O1078      H1103   0.966       .  S
C1079      C1210   1.479       .  S
C1080      C1253   1.479       .  S
C1081      C1190   1.488       .  S
O1082      H1118   0.990       .  S
O1083      C1085   1.281       .  A
O1084      C1085   1.288       .  A
C1085      C1260   1.486       .  S
O1086     Zr1087   2.440       .  S
O1086      H1115   0.990       .  S
Zr1087     O1090   2.438       .  S
Zr1087     O1091   2.439       .  S
Zr1087     O1092   2.415       .  S
O1088      C1093   1.285       .  A
O1089      H1106   0.990       .  S
O1089      H1121   0.990       .  S
O1090      H1107   0.990       .  S
O1091      H1111   0.990       .  S
O1091      H1120   0.989       .  S
O1092      C1093   1.282       .  A
C1093      C1203   1.483       .  S
O1094      H1113   0.990       .  S
O1094      H1117   0.990       .  S
O1095      H1109   0.990       .  S
O1095      H1116   0.990       .  S
O1096      C1100   1.293       .  A
O1097      C1100   1.279   1_655  A
O1098      H1108   0.990       .  S
O1099      H1112   0.990       .  S
C1100      C1460   1.479       .  S
Zr1123     O1124   2.439       .  S
Zr1123     O1125   2.421       .  S
Zr1123     O1126   2.419       .  S
Zr1123     O1129   2.425       .  S
Zr1123     O1131   2.379       .  S
Zr1123     O1132   2.384       .  S
Zr1123     O1133   2.401       .  S
Zr1123     O1134   2.398       .  S
O1124      H1180   0.990       .  S
O1124      H1188   0.990       .  S
O1125      C1145   1.282       .  A
O1126      C1147   1.283       .  A
O1127     Zr1137   2.430       .  S
O1127      C1146   1.284       .  A
O1128     Zr1136   2.450       .  S
O1128      C1147   1.288       .  A
O1129      C1146   1.284       .  A
O1130     Zr1138   2.412       .  S
O1130      C1145   1.282       .  A
O1131     Zr1136   2.381       .  S
O1131     Zr1138   2.368       .  S
O1132     Zr1137   2.387       .  S
O1132     Zr1138   2.382       .  S
O1132      H1167   0.966       .  S
O1133     Zr1136   2.388       .  S
O1133     Zr1153   2.400       .  S
O1133      H1170   0.966       .  S
O1134     Zr1137   2.377       .  S
O1134     Zr1153   2.390       .  S
Zr1135     O1160   2.442       .  S
Zr1135     O1154   2.454       .  S
Zr1135     O1162   2.477       .  S
Zr1135     O1150   2.450       .  S
Zr1135     O1141   2.394       .  S
Zr1135     O1142   2.421       .  S
Zr1135     O1143   2.387       .  S
Zr1135     O1144   2.393       .  S
Zr1136     O1155   2.435       .  S
Zr1136     O1148   2.433   1_655  S
Zr1136     O1149   2.416   1_655  S
Zr1136     O1142   2.402       .  S
Zr1136     O1143   2.394       .  S
Zr1137     O1139   2.433       .  S
Zr1137     O1161   2.441       .  S
Zr1137     O1163   2.410       .  S
Zr1137     O1141   2.387       .  S
Zr1137     O1144   2.396       .  S
Zr1138     O1164   2.436       .  S
Zr1138     O1165   2.436       .  S
Zr1138     O1140   2.436       .  S
Zr1138     O1141   2.373       .  S
Zr1138     O1142   2.398       .  S
O1139      H1176   0.990       .  S
O1140      H1171   0.991       .  S
O1140      H1185   0.990       .  S
O1142      H1168   0.965       .  S
O1143     Zr1153   2.378       .  S
O1144     Zr1153   2.392       .  S
O1144      H1169   0.966       .  S
C1145      C1323   1.476       .  S
C1146      C1233   1.481       .  S
C1147      C1193   1.489       .  S
O1148      H1184   0.990       .  S
O1149      C1151   1.283       .  A
O1150      C1151   1.287   1_655  A
C1151      C1220   1.485       .  S
O1152     Zr1153   2.439       .  S
O1152      H1181   0.990       .  S
Zr1153     O1156   2.437       .  S
Zr1153     O1157   2.439       .  S
Zr1153     O1158   2.405       .  S
O1154      C1159   1.287       .  A
O1155      H1172   0.990       .  S
O1155      H1187   0.990       .  S
O1156      H1173   0.990       .  S
O1157      H1177   0.990       .  S
O1157      H1186   0.989       .  S
O1158      C1159   1.280       .  A
C1159      C1313   1.486   1_545  S
O1160      H1179   0.990       .  S
O1160      H1183   0.990       .  S
O1161      H1175   0.990       .  S
O1161      H1182   0.990       .  S
O1162      C1166   1.292       .  A
O1163      C1166   1.280       .  A
O1164      H1174   0.990       .  S
O1165      H1178   0.991       .  S
C1166      C1673   1.480       .  S
C1189      C1190   1.406       .  A
C1189      C1194   1.395       .  A
C1189      H1195   1.083       .  S
C1190      C1191   1.409       .  A
C1191      C1192   1.404       .  A
C1191      H1196   1.083   1_655  S
C1192      C1193   1.407       .  A
C1192      H1197   1.083   1_655  S
C1193      C1194   1.408       .  A
C1194      H1198   1.083       .  S
C1199      C1200   1.406       .  A
C1199      C1204   1.402       .  A
C1199      H1205   1.083       .  S
C1200      C1201   1.405       .  A
C1201      C1202   1.391       .  A
C1201      H1206   1.083       .  S
C1202      C1203   1.405       .  A
C1202      H1207   1.083       .  S
C1203      C1204   1.408       .  A
C1204      H1208   1.083       .  S
C1209      C1210   1.404       .  A
C1209      C1214   1.390       .  A
C1209      H1215   1.083       .  S
C1210      C1211   1.407       .  A
C1211      C1212   1.400       .  A
C1211      H1216   1.083       .  S
C1212      C1213   1.406       .  A
C1212      H1217   1.083       .  S
C1213      C1214   1.406       .  A
C1214      H1218   1.083       .  S
C1219      C1220   1.408       .  A
C1219      C1224   1.405       .  A
C1219      H1225   1.083       .  S
C1220      C1221   1.405       .  A
C1221      C1222   1.392       .  A
C1221      H1226   1.083       .  S
C1222      C1223   1.406       .  A
C1222      H1227   1.083       .  S
C1223      C1224   1.408       .  A
C1224      H1228   1.083       .  S
C1229      C1230   1.404       .  A
C1229      C1234   1.392       .  A
C1229      H1235   1.083       .  S
C1230      C1231   1.407       .  A
C1231      C1232   1.402       .  A
C1231      H1236   1.083       .  S
C1232      C1233   1.406       .  A
C1232      H1237   1.083       .  S
C1233      C1234   1.405       .  A
C1234      H1238   1.083       .  S
C1239      C1240   1.407       .  A
C1239      C1244   1.395       .  A
C1239      H1245   1.083       .  S
C1240      C1241   1.407       .  A
C1241      C1242   1.403       .  A
C1241      H1246   1.083       .  S
C1242      C1243   1.409       .  A
C1242      H1247   1.083       .  S
C1243      C1244   1.405       .  A
C1244      H1248   1.083       .  S
C1249      C1250   1.407       .  A
C1249      C1254   1.400       .  A
C1249      H1255   1.083       .  S
C1250      C1251   1.404       .  A
C1251      C1252   1.391       .  A
C1251      H1256   1.083       .  S
C1252      C1253   1.406       .  A
C1252      H1257   1.083       .  S
C1253      C1254   1.406       .  A
C1254      H1258   1.083       .  S
C1259      C1260   1.406       .  A
C1259      C1264   1.391       .  A
C1259      H1265   1.083       .  S
C1260      C1261   1.408       .  A
C1261      C1262   1.406       .  A
C1261      H1266   1.083       .  S
C1262      C1263   1.409       .  A
C1262      H1267   1.083       .  S
C1263      C1264   1.406       .  A
C1264      H1268   1.083       .  S
C1269      C1270   1.406       .  A
C1269      C1274   1.389       .  A
C1269      H1275   1.083       .  S
C1270      C1271   1.405       .  A
C1271      C1272   1.399       .  A
C1271      H1276   1.083       .  S
C1272      C1273   1.407       .  A
C1272      H1277   1.083       .  S
C1273      C1274   1.403       .  A
C1274      H1278   1.083       .  S
C1279      C1280   1.404       .  A
C1279      C1284   1.392       .  A
C1279      H1285   1.083       .  S
C1280      C1281   1.409       .  A
C1281      C1282   1.405       .  A
C1281      H1286   1.083       .  S
C1282      C1283   1.406       .  A
C1282      H1287   1.083       .  S
C1283      C1284   1.408       .  A
C1284      H1288   1.083       .  S
C1289      C1290   1.408       .  A
C1289      C1294   1.405       .  A
C1289      H1295   1.083       .  S
C1290      C1291   1.406       .  A
C1291      C1292   1.391       .  A
C1291      H1296   1.083       .  S
C1292      C1293   1.404       .  A
C1292      H1297   1.083       .  S
C1293      C1294   1.408       .  A
C1294      H1298   1.083   1_565  S
C1299      C1300   1.407       .  A
C1299      C1304   1.399       .  A
C1299      H1305   1.083       .  S
C1300      C1301   1.404       .  A
C1301      C1302   1.391       .  A
C1301      H1306   1.083       .  S
C1302      C1303   1.406       .  A
C1302      H1307   1.083       .  S
C1303      C1304   1.405       .  A
C1304      H1308   1.083       .  S
C1309      C1310   1.408       .  A
C1309      C1314   1.404       .  A
C1309      H1315   1.083       .  S
C1310      C1311   1.405       .  A
C1311      C1312   1.393       .  A
C1311      H1316   1.083       .  S
C1312      C1313   1.407       .  A
C1312      H1317   1.083       .  S
C1313      C1314   1.407       .  A
C1314      H1318   1.083   1_565  S
C1319      C1320   1.405       .  A
C1319      C1324   1.399       .  A
C1319      H1325   1.083       .  S
C1320      C1321   1.406       .  A
C1321      C1322   1.388       .  A
C1321      H1326   1.083       .  S
C1322      C1323   1.404       .  A
C1322      H1327   1.083       .  S
C1323      C1324   1.407       .  A
C1324      H1328   1.083       .  S
C1329      C1330   1.407       .  A
C1329      C1334   1.404       .  A
C1329      H1335   1.083       .  S
C1330      C1331   1.407       .  A
C1331      C1332   1.395       .  A
C1331      H1336   1.083       .  S
C1332      C1333   1.406       .  A
C1332      H1337   1.083       .  S
C1333      C1334   1.408       .  A
C1334      H1338   1.083       .  S
C1339      C1340   1.404       .  A
C1339      C1344   1.402   1_554  A
C1339      H1345   1.083       .  S
C1340      C1341   1.405       .  A
C1341      C1342   1.403   1_554  A
C1341      H1346   1.083       .  S
C1342      C1343   1.405       .  A
C1342      H1347   1.083       .  S
C1343      C1344   1.408       .  A
C1344      H1348   1.083       .  S
C1349      C1350   1.409   1_545  A
C1349      C1354   1.403   1_545  A
C1349      H1355   1.083       .  S
C1350      C1351   1.405       .  A
C1351      C1352   1.395       .  A
C1351      H1356   1.083       .  S
C1352      C1353   1.408       .  A
C1352      H1357   1.083       .  S
C1353      C1354   1.406       .  A
C1354      H1358   1.083   1_565  S
C1359      C1360   1.413       .  A
C1359      C1364   1.400   1_554  A
C1359      H1365   1.083       .  S
C1360      C1361   1.402       .  A
C1361      C1362   1.400   1_554  A
C1361      H1366   1.083       .  S
C1362      C1363   1.411       .  A
C1362      H1367   1.083       .  S
C1363      C1364   1.399       .  A
C1364      H1368   1.083       .  S
C1369      C1370   1.406       .  A
C1369      C1374   1.399       .  A
C1369      H1375   1.083       .  S
C1370      C1371   1.405       .  A
C1371      C1372   1.391       .  A
C1371      H1376   1.083       .  S
C1372      C1373   1.405       .  A
C1372      H1377   1.083       .  S
C1373      C1374   1.406       .  A
C1374      H1378   1.083       .  S
C1379      C1380   1.405       .  A
C1379      C1384   1.391       .  A
C1379      H1385   1.083       .  S
C1380      C1381   1.408       .  A
C1381      C1382   1.403       .  A
C1381      H1386   1.083       .  S
C1382      C1383   1.407       .  A
C1382      H1387   1.083       .  S
C1383      C1384   1.406       .  A
C1384      H1388   1.083       .  S
C1389      C1390   1.405       .  A
C1389      C1394   1.391       .  A
C1389      H1395   1.083       .  S
C1390      C1391   1.408       .  A
C1391      C1392   1.404       .  A
C1391      H1396   1.083       .  S
C1392      C1393   1.408       .  A
C1392      H1397   1.083   1_655  S
C1393      C1394   1.406       .  A
C1394      H1398   1.083       .  S
C1399      C1400   1.407       .  A
C1399      C1404   1.401       .  A
C1399      H1405   1.083       .  S
C1400      C1401   1.405       .  A
C1401      C1402   1.392       .  A
C1401      H1406   1.083       .  S
C1402      C1403   1.405       .  A
C1402      H1407   1.083       .  S
C1403      C1404   1.407       .  A
C1404      H1408   1.083       .  S
C1409      C1410   1.408       .  A
C1409      C1414   1.404       .  A
C1409      H1415   1.083       .  S
C1410      C1411   1.406       .  A
C1411      C1412   1.394       .  A
C1411      H1416   1.083       .  S
C1412      C1413   1.407       .  A
C1412      H1417   1.083       .  S
C1413      C1414   1.408       .  A
C1414      H1418   1.083       .  S
C1419      C1420   1.410       .  A
C1419      C1424   1.405       .  A
C1419      H1425   1.083       .  S
C1420      C1421   1.403       .  A
C1421      C1422   1.389       .  A
C1421      H1426   1.083       .  S
C1422      C1423   1.406       .  A
C1422      H1427   1.083       .  S
C1423      C1424   1.407       .  A
C1424      H1428   1.083       .  S
C1429      C1430   1.404       .  A
C1429      C1434   1.388       .  A
C1429      H1435   1.083       .  S
C1430      C1431   1.407       .  A
C1431      C1432   1.400       .  A
C1431      H1436   1.083       .  S
C1432      C1433   1.406       .  A
C1432      H1437   1.083       .  S
C1433      C1434   1.405       .  A
C1434      H1438   1.083       .  S
C1439      C1440   1.408       .  A
C1439      C1444   1.403       .  A
C1439      H1445   1.083   1_655  S
C1440      C1441   1.403       .  A
C1441      C1442   1.389       .  A
C1441      H1446   1.083       .  S
C1442      C1443   1.406       .  A
C1442      H1447   1.083       .  S
C1443      C1444   1.407       .  A
C1444      H1448   1.083       .  S
C1449      C1450   1.408       .  A
C1449      C1454   1.403       .  A
C1449      H1455   1.083       .  S
C1450      C1451   1.404       .  A
C1451      C1452   1.391       .  A
C1451      H1456   1.083       .  S
C1452      C1453   1.405       .  A
C1452      H1457   1.083       .  S
C1453      C1454   1.407       .  A
C1454      H1458   1.083       .  S
C1459      C1460   1.410   1_655  A
C1459      C1464   1.399   1_556  A
C1459      H1465   1.083       .  S
C1460      C1461   1.399       .  A
C1461      C1462   1.400   1_556  A
C1461      H1466   1.083       .  S
C1462      C1463   1.412       .  A
C1462      H1467   1.083       .  S
C1463      C1464   1.400   1_455  A
C1464      H1468   1.083       .  S
C1469      C1470   1.409       .  A
C1469      C1474   1.403       .  A
C1469      H1475   1.083       .  S
C1470      C1471   1.404       .  A
C1471      C1472   1.391       .  A
C1471      H1476   1.083       .  S
C1472      C1473   1.405       .  A
C1472      H1477   1.083       .  S
C1473      C1474   1.407       .  A
C1474      H1478   1.083       .  S
C1479      C1480   1.406       .  A
C1479      C1484   1.390       .  A
C1479      H1485   1.083       .  S
C1480      C1481   1.407       .  A
C1481      C1482   1.405       .  A
C1481      H1486   1.083       .  S
C1482      C1483   1.408       .  A
C1482      H1487   1.083       .  S
C1483      C1484   1.405       .  A
C1484      H1488   1.083       .  S
C1489      C1490   1.406       .  A
C1489      C1494   1.389       .  A
C1489      H1495   1.083       .  S
C1490      C1491   1.405       .  A
C1491      C1492   1.400       .  A
C1491      H1496   1.083       .  S
C1492      C1493   1.407       .  A
C1492      H1497   1.083       .  S
C1493      C1494   1.403       .  A
C1494      H1498   1.083       .  S
C1499      C1500   1.407       .  A
C1499      C1504   1.405       .  A
C1499      H1505   1.083       .  S
C1500      C1501   1.407       .  A
C1501      C1502   1.389       .  A
C1501      H1506   1.083       .  S
C1502      C1503   1.403       .  A
C1502      H1507   1.083       .  S
C1503      C1504   1.410       .  A
C1504      H1508   1.083       .  S
C1509      C1510   1.408       .  A
C1509      C1514   1.403       .  A
C1509      H1515   1.083       .  S
C1510      C1511   1.405       .  A
C1511      C1512   1.392       .  A
C1511      H1516   1.083       .  S
C1512      C1513   1.405       .  A
C1512      H1517   1.083       .  S
C1513      C1514   1.408       .  A
C1514      H1518   1.083       .  S
C1519      C1520   1.411       .  A
C1519      C1524   1.399       .  A
C1519      H1525   1.083       .  S
C1520      C1521   1.400       .  A
C1521      C1522   1.397       .  A
C1521      H1526   1.083       .  S
C1522      C1523   1.411       .  A
C1522      H1527   1.083       .  S
C1523      C1524   1.400       .  A
C1524      H1528   1.083       .  S
C1529      C1530   1.400       .  A
C1529      C1534   1.398       .  A
C1529      H1535   1.083       .  S
C1530      C1531   1.411       .  A
C1531      C1532   1.398       .  A
C1531      H1536   1.083       .  S
C1532      C1533   1.399       .  A
C1532      H1537   1.083       .  S
C1533      C1534   1.411       .  A
C1534      H1538   1.083       .  S
C1539      C1540   1.405       .  A
C1539      C1544   1.392       .  A
C1539      H1545   1.083       .  S
C1540      C1541   1.409       .  A
C1541      C1542   1.403       .  A
C1541      H1546   1.083       .  S
C1542      C1543   1.407       .  A
C1542      H1547   1.083       .  S
C1543      C1544   1.407       .  A
C1544      H1548   1.083       .  S
C1549      C1550   1.412       .  A
C1549      C1554   1.400       .  A
C1549      H1555   1.083       .  S
C1550      C1551   1.399       .  A
C1551      C1552   1.399       .  A
C1551      H1556   1.083       .  S
C1552      C1553   1.412       .  A
C1552      H1557   1.083       .  S
C1553      C1554   1.401       .  A
C1554      H1558   1.083       .  S
C1559      C1560   1.404       .  A
C1559      C1564   1.392       .  A
C1559      H1565   1.083       .  S
C1560      C1561   1.408       .  A
C1561      C1562   1.401       .  A
C1561      H1566   1.083   1_565  S
C1562      C1563   1.406       .  A
C1562      H1567   1.083       .  S
C1563      C1564   1.406       .  A
C1564      H1568   1.083       .  S
C1569      C1570   1.408       .  A
C1569      C1574   1.405       .  A
C1569      H1575   1.083       .  S
C1570      C1571   1.406       .  A
C1571      C1572   1.392       .  A
C1571      H1576   1.083       .  S
C1572      C1573   1.405       .  A
C1572      H1577   1.083       .  S
C1573      C1574   1.408       .  A
C1574      H1578   1.083       .  S
C1579      C1580   1.399       .  A
C1579      C1584   1.398       .  A
C1579      H1585   1.083       .  S
C1580      C1581   1.412       .  A
C1581      C1582   1.398       .  A
C1581      H1586   1.083       .  S
C1582      C1583   1.399       .  A
C1582      H1587   1.083       .  S
C1583      C1584   1.411       .  A
C1584      H1588   1.083       .  S
C1589      C1590   1.405       .  A
C1589      C1594   1.389       .  A
C1589      H1595   1.083       .  S
C1590      C1591   1.406       .  A
C1591      C1592   1.402       .  A
C1591      H1596   1.083   1_655  S
C1592      C1593   1.407       .  A
C1592      H1597   1.083       .  S
C1593      C1594   1.405       .  A
C1594      H1598   1.083       .  S
C1599      C1600   1.404       .  A
C1599      C1604   1.390       .  A
C1599      H1605   1.083       .  S
C1600      C1601   1.409       .  A
C1601      C1602   1.406       .  A
C1601      H1606   1.083       .  S
C1602      C1603   1.408       .  A
C1602      H1607   1.083       .  S
C1603      C1604   1.405       .  A
C1604      H1608   1.083       .  S
C1609      C1610   1.406       .  A
C1609      C1614   1.395       .  A
C1609      H1615   1.083       .  S
C1610      C1611   1.409       .  A
C1611      C1612   1.405       .  A
C1611      H1616   1.083       .  S
C1612      C1613   1.407       .  A
C1612      H1617   1.083       .  S
C1613      C1614   1.408       .  A
C1614      H1618   1.083       .  S
C1619      C1620   1.402       .  A
C1619      C1624   1.399       .  A
C1619      H1625   1.083       .  S
C1620      C1621   1.411       .  A
C1621      C1622   1.399       .  A
C1621      H1626   1.083       .  S
C1622      C1623   1.400       .  A
C1622      H1627   1.083       .  S
C1623      C1624   1.411       .  A
C1624      H1628   1.083       .  S
C1629      C1630   1.403       .  A
C1629      C1634   1.390       .  A
C1629      H1635   1.083       .  S
C1630      C1631   1.408       .  A
C1631      C1632   1.401       .  A
C1631      H1636   1.083       .  S
C1632      C1633   1.405       .  A
C1632      H1637   1.083       .  S
C1633      C1634   1.406       .  A
C1634      H1638   1.083       .  S
C1639      C1640   1.405       .  A
C1639      C1644   1.393       .  A
C1639      H1645   1.083       .  S
C1640      C1641   1.409       .  A
C1641      C1642   1.406       .  A
C1641      H1646   1.083       .  S
C1642      C1643   1.408       .  A
C1642      H1647   1.083       .  S
C1643      C1644   1.405       .  A
C1644      H1648   1.083       .  S
C1649      C1650   1.408       .  A
C1649      C1654   1.403       .  A
C1649      H1655   1.083       .  S
C1650      C1651   1.404       .  A
C1651      C1652   1.393       .  A
C1651      H1656   1.083       .  S
C1652      C1653   1.407       .  A
C1652      H1657   1.083       .  S
C1653      C1654   1.406       .  A
C1654      H1658   1.083       .  S
C1659      C1660   1.406       .  A
C1659      C1664   1.399       .  A
C1659      H1665   1.083   1_655  S
C1660      C1661   1.404       .  A
C1661      C1662   1.391       .  A
C1661      H1666   1.083       .  S
C1662      C1663   1.406       .  A
C1662      H1667   1.083       .  S
C1663      C1664   1.405       .  A
C1664      H1668   1.083       .  S
C1669      C1670   1.401       .  A
C1669      C1674   1.399       .  A
C1669      H1675   1.083       .  S
C1670      C1671   1.411       .  A
C1671      C1672   1.398       .  A
C1671      H1676   1.083       .  S
C1672      C1673   1.400       .  A
C1672      H1677   1.083       .  S
C1673      C1674   1.411       .  A
C1674      H1678   1.083       .  S
C1679      C1680   1.404       .  A
C1679      C1684   1.391       .  A
C1679      H1685   1.083       .  S
C1680      C1681   1.408       .  A
C1681      C1682   1.403       .  A
C1681      H1686   1.083       .  S
C1682      C1683   1.406       .  A
C1682      H1687   1.083       .  S
C1683      C1684   1.406       .  A
C1684      H1688   1.083       .  S
C1689      C1690   1.405       .  A
C1689      C1694   1.393       .  A
C1689      H1695   1.083       .  S
C1690      C1691   1.408       .  A
C1691      C1692   1.402       .  A
C1691      H1696   1.083       .  S
C1692      C1693   1.406   1_565  A
C1692      H1697   1.083   1_565  S
C1693      C1694   1.405   1_545  A
C1694      H1698   1.083       .  S
C1699      C1700   1.409       .  A
C1699      C1704   1.408       .  A
C1699      H1705   1.083       .  S
C1700      C1701   1.407       .  A
C1701      C1702   1.393       .  A
C1701      H1706   1.083       .  S
C1702      C1703   1.404       .  A
C1702      H1707   1.083       .  S
C1703      C1704   1.410       .  A
C1704      H1708   1.083       .  S
C1709      C1710   1.407       .  A
C1709      C1714   1.401       .  A
C1709      H1715   1.083       .  S
C1710      C1711   1.404       .  A
C1711      C1712   1.388       .  A
C1711      H1716   1.083       .  S
C1712      C1713   1.405       .  A
C1712      H1717   1.083       .  S
C1713      C1714   1.406       .  A
C1714      H1718   1.083       .  S
C1719      C1720   1.409   1_455  A
C1719      C1724   1.405       .  A
C1719      H1725   1.083       .  S
C1720      C1721   1.405   1_655  A
C1721      C1722   1.392       .  A
C1721      H1726   1.083   1_455  S
C1722      C1723   1.405       .  A
C1722      H1727   1.083       .  S
C1723      C1724   1.409       .  A
C1724      H1728   1.083       .  S
