geometry optimzed in LAMMPS
_audit_creation_date              2020-12-01 
_audit_creation_method            'lammps2cif' 
_symmetry_space_group_name_H-M    'P1' 
_symmetry_Int_Tables_number       1 
_symmetry_cell_setting            triclinic 
loop_ 
_symmetry_equiv_pos_as_xyz 
  x,y,z 
_cell_length_a                    27.93790215 
_cell_length_b                    27.653891868504385 
_cell_length_c                    47.796168365564895 
_cell_angle_alpha                 89.82883356479951 
_cell_angle_beta                  89.68386431601864 
_cell_angle_gamma                 121.14135992469961 
loop_ 
_atom_site_label 
_atom_site_type_symbol 
_atom_site_fract_x 
_atom_site_fract_y 
_atom_site_fract_z 
_atom_site_charge 
O1          O  0.93001607  0.35510625  0.76218722    -0.87600
C2          C  0.98874547  0.28358831  0.70750709     0.88400
Mg3        Mg  0.86528766  0.37152972  0.75368030     1.58100
O4          O  0.06408173  0.42974406  0.71717862    -0.87300
O5          O  0.01487628  0.40260341  0.77800635    -0.74600
C6          C  0.91501562  0.47080339  0.62023046     0.93500
O7          O  0.85683237  0.26121079  0.71678678    -0.74500
O8          O  0.87173774  0.44345205  0.63600077    -0.82000
Mg9        Mg  0.91366282  0.27181204  0.75346852     1.58000
C10         C  0.13126077  0.51676893  0.64374686     0.93400
O11         O  0.96292255  0.26747951  0.79087269    -0.80200
H12         H  0.10832141  0.49872390  0.74064328    -0.05600
C13         C  0.96417918  0.37083619  0.65041380     0.88400
O14         O  0.92859519  0.46206576  0.73916104    -0.74700
O15         O  0.98585475  0.30969075  0.72778224    -0.87500
O16         O  0.13240120  0.49815968  0.66772387    -0.80300
C17         C  0.15339740  0.37379046  0.71300470     0.93500
C18         C  0.01278343  0.28065139  0.79631779     0.93400
Mg19       Mg  0.01566253  0.49311818  0.66745852     1.58000
O20         O  0.96373500  0.48469042  0.62862289    -0.80200
O21         O  0.06999675  0.51017325  0.70732421    -0.74500
O22         O  0.10816182  0.34256620  0.72590648    -0.80300
O23         O  0.83920907  0.23537267  0.78101576    -0.82000
O24         O  0.80817038  0.42150639  0.70150213    -0.80300
C25         C  0.08182024  0.47994905  0.72263892     0.87800
O26         O  0.94281267  0.46135724  0.69390323    -0.87500
O27         O  0.00207356  0.40885207  0.66440635    -0.87600
O28         O  0.91369150  0.35912962  0.65233835    -0.74700
Mg29       Mg  0.05930002  0.37328275  0.74874783     1.58000
O30         O  0.15480380  0.40451666  0.69271642    -0.82000
H31         H  0.94967521  0.40381120  0.79609977    -0.05800
O32         O  0.85812607  0.34063623  0.71180922    -0.87300
H33         H  0.80922198  0.27255610  0.68879209    -0.05600
H34         H  0.97663243  0.53273423  0.71592578    -0.05800
C35         C  0.83950426  0.29079030  0.70539896     0.87800
C36         C  0.96371788  0.38709876  0.77968123     0.88400
C37         C  0.94967041  0.48724320  0.71603504     0.88400
H38         H  0.97407751  0.34662646  0.63633342    -0.05700
O39         O  0.01914559  0.30962757  0.68631358    -0.74800
Mg40       Mg  0.86493637  0.39306663  0.67699775     1.58000
H41         H  0.96503459  0.23791995  0.70779950    -0.05700
C42         C  0.79862722  0.24318098  0.78409051     0.93400
O43         O  0.80034285  0.39301672  0.74612709    -0.82000
C44         C  0.78717642  0.41451577  0.72634248     0.93500
O45         O  0.05382415  0.31452145  0.78115287    -0.82000
Mg46       Mg  0.07581307  0.40530591  0.67714394     1.58200
O47         O  0.79716652  0.28405456  0.77243518    -0.80300
O48         O  0.09164380  0.52451177  0.63748832    -0.82000
O49         O  0.99413774  0.68078000  0.47715466    -0.87600
C50         C  0.00486583  0.65827208  0.39333942     0.88400
Mg51       Mg  0.96284845  0.61398153  0.50782992     1.58100
O52         O  0.88978594  0.66585035  0.42033273    -0.87300
O53         O  0.98113216  0.74897897  0.46545702    -0.74600
C54         C  0.75239826  0.39350252  0.43944162     0.93500
O55         O  0.02332825  0.59322373  0.45003543    -0.74500
O56         O  0.78078892  0.39857394  0.46140097    -0.82000
Mg57       Mg  0.05754422  0.68827041  0.44816283     1.58000
C58         C  0.73674201  0.55838372  0.38131892     0.93400
O59         O  0.10951178  0.78680160  0.44218603    -0.80200
H60         H  0.85421810  0.70744073  0.43711932    -0.05600
C61         C  0.86808823  0.51493193  0.40418497     0.88400
O62         O  0.87318460  0.59560179  0.50435044    -0.74700
O63         O  0.00293917  0.68046543  0.41537071    -0.87500
O64         O  0.78584937  0.60042518  0.37858235    -0.80300
C65         C  0.94373055  0.73076741  0.35087062     0.93500
C66         C  0.10859103  0.82028529  0.42396329     0.93400
Mg67       Mg  0.78083126  0.52711124  0.43578934     1.58000
O68         O  0.75237567  0.43541188  0.42859548    -0.80200
O69         O  0.80707629  0.62162369  0.44122294    -0.74500
O70         O  0.97537557  0.74828041  0.37184144    -0.80300
O71         O  0.11196662  0.69673064  0.48415299    -0.82000
O72         O  0.85711073  0.46602952  0.52155786    -0.80300
C73         C  0.85046208  0.66715301  0.43291543     0.87800
O74         O  0.83052401  0.53323453  0.47117350    -0.87500
O75         O  0.85036085  0.54684463  0.40929817    -0.87600
O76         O  0.87771822  0.48925848  0.42348115    -0.74700
Mg77       Mg  0.97577914  0.74100597  0.41796787     1.58000
O78         O  0.89579005  0.68663642  0.35181985    -0.82000
H79         H  0.99252991  0.73292761  0.50555108    -0.05800
O80         O  0.94780074  0.55337393  0.47611153    -0.87300
H81         H  0.98075507  0.51005921  0.46037753    -0.05600
H82         H  0.79111055  0.56102479  0.49522239    -0.05800
C83         C  0.98404584  0.55058019  0.46259915     0.87800
C84         C  0.98994213  0.72144671  0.48375135     0.88400
C85         C  0.82965167  0.56221553  0.49061285     0.88400
H86         H  0.87672663  0.50958129  0.38270079    -0.05700
O87         O  0.96188760  0.63092924  0.37818913    -0.74800
Mg88       Mg  0.86595791  0.48000120  0.47155968     1.58000
H89         H  0.04358232  0.66132383  0.38710865    -0.05700
C90         C  0.10321191  0.67375260  0.50824836     0.93400
O91         O  0.92868846  0.54406307  0.54028101    -0.82000
C92         C  0.88756131  0.49337045  0.54270366     0.93500
O93         O  0.06369642  0.81105861  0.41282361    -0.82000
Mg94       Mg  0.87247768  0.61479843  0.38144824     1.58200
O95         O  0.05415226  0.63821269  0.51747258    -0.80300
O96         O  0.72482387  0.51965426  0.39919943    -0.82000
O97         O  0.72157995  0.14666844  0.06253200    -0.87600
C98         C  0.79851696  0.09443720  0.11633831     0.88400
Mg99       Mg  0.70843402  0.21423926  0.07082866     1.58100
O100        O  0.65348166  0.02614217  0.11069831    -0.87300
O101        O  0.67355236  0.06040072  0.04762287    -0.74600
C102        C  0.62873627  0.18155915  0.20746133     0.93500
O103        O  0.82129658  0.22555844  0.10375397    -0.74500
O104        O  0.65043016  0.22181569  0.18932576    -0.82000
Mg105      Mg  0.80496419  0.16329866  0.06819697     1.58000
C106        C  0.57306791  0.95708532  0.18581266     0.93400
O107        O  0.80138885  0.10636003  0.03137288    -0.80200
H108        H  0.58158791  0.97322668  0.09005937    -0.05600
C109        C  0.71925855  0.12474000  0.17532522     0.88400
O110        O  0.62009302  0.15379328  0.08826091    -0.74700
O111        O  0.77094106  0.09504229  0.09625136    -0.87500
O112        O  0.58951244  0.95475756  0.16146729    -0.80300
C113        C  0.70782117  0.92909379  0.11282594     0.93500
C114        C  0.78742882  0.05482091  0.02830027     0.93400
Mg115      Mg  0.59681722  0.07367599  0.16203807     1.58000
O116        O  0.61438507  0.13102594  0.20081300    -0.80200
O117        O  0.57178009  0.01395476  0.12317672    -0.74500
O118        O  0.73975502  0.97674030  0.10221800    -0.80300
O119        O  0.83847886  0.23542391  0.03875900    -0.82000
O120        O  0.66941656  0.28282495  0.12267166    -0.80300
C121        C  0.60127666  0.00274015  0.10707230     0.87800
O122        O  0.62578989  0.14475457  0.13370135    -0.87500
O123        O  0.67964602  0.08495196  0.16301029    -0.87600
O124        O  0.73084259  0.17558432  0.17227267    -0.74700
Mg125      Mg  0.70506178  0.01974347  0.07798170     1.58000
O126        O  0.67698541  0.92567273  0.13341707    -0.82000
H127        H  0.67100824  0.12546695  0.02948197    -0.05800
O128        O  0.74371336  0.22510469  0.11170274    -0.87300
H129        H  0.81457608  0.27644518  0.13195143    -0.05600
H130        H  0.55269692  0.10978288  0.11381301    -0.05800
C131        C  0.79387690  0.24418561  0.11624342     0.87800
C132        C  0.68852416  0.11193408  0.04567122     0.88400
C133        C  0.59775918  0.13590018  0.11226443     0.88400
H134        H  0.74475905  0.11619923  0.18900439    -0.05700
O135        O  0.77467999  0.06563436  0.13839650    -0.74800
Mg136      Mg  0.69635956  0.22408910  0.14756588     1.58000
H137        H  0.84367104  0.11858142  0.11507389    -0.05700
C138        C  0.83216357  0.27756435  0.03724380     0.93400
O139        O  0.69156088  0.28271740  0.07762921    -0.82000
C140        C  0.67488950  0.30118381  0.09726206     0.93500
O141        O  0.75817760  0.01733554  0.04614076    -0.82000
Mg142      Mg  0.68059850  0.00901275  0.15020910     1.58200
O143        O  0.79346272  0.27986956  0.05032022    -0.80300
O144        O  0.56771197  0.99840177  0.19267970    -0.82000
O145        O  0.43721213  0.15386315  0.42107365    -0.87600
C146        C  0.31101654  0.09159253  0.36505288     0.88400
Mg147      Mg  0.52019089  0.21597902  0.41343613     1.58100
O148        O  0.37356205  0.01434750  0.38257673    -0.87300
O149        O  0.39253754  0.07098137  0.44093916    -0.74600
C150        C  0.57642170  0.15194320  0.28532302     0.93500
O151        O  0.42398246  0.22250069  0.37101605    -0.74500
O152        O  0.59591826  0.19734974  0.29972194    -0.82000
Mg153      Mg  0.37419928  0.17161862  0.40965200     1.58000
C154        C  0.39556464  0.93783030  0.31423929     0.93400
O155        O  0.32643644  0.12628256  0.45022702    -0.80200
H156        H  0.39400271  0.97289917  0.40985106    -0.05600
C157        C  0.42764216  0.10813115  0.31183044     0.88400
O158        O  0.54388881  0.14968921  0.40418867    -0.74700
O159        O  0.33716477  0.09583396  0.38663208    -0.87500
O160        O  0.37469580  0.94044132  0.33726132    -0.80300
C161        C  0.22752466  0.92578152  0.37603107     0.93500
C162        C  0.28678920  0.07702597  0.45703141     0.93400
Mg163      Mg  0.49106051  0.05628873  0.33520351     1.58000
O164        O  0.53886065  0.10415384  0.29525792    -0.80200
O165        O  0.44746744  0.00679083  0.37658211    -0.74500
O166        O  0.24163667  0.97308805  0.38640482    -0.80300
O167        O  0.41411563  0.25335152  0.43237813    -0.82000
O168        O  0.63531013  0.26757528  0.36476188    -0.80300
C169        C  0.40429988  0.99715420  0.39062676     0.87800
O170        O  0.53420634  0.13225116  0.35910356    -0.87500
O171        O  0.42371891  0.07171697  0.32841054    -0.87600
O172        O  0.46899853  0.15890624  0.31235971    -0.74700
Mg173      Mg  0.31977803  0.02408157  0.41089170     1.58000
O174        O  0.25819160  0.92212485  0.35738784    -0.82000
H175        H  0.46191203  0.13790364  0.45737667    -0.05800
O176        O  0.50173635  0.22031683  0.37018925    -0.87300
H177        H  0.48671476  0.26563029  0.34283916    -0.05600
H178        H  0.56608153  0.09904406  0.38475289    -0.05800
C179        C  0.47211930  0.23796528  0.36092247     0.87800
C180        C  0.43178647  0.12213311  0.44062335     0.88400
C181        C  0.54968677  0.12671881  0.38248157     0.88400
H182        H  0.39505618  0.09667416  0.29660233    -0.05700
O183        O  0.30700982  0.05873786  0.34540859    -0.74800
Mg184      Mg  0.55047495  0.20949053  0.33848797     1.58000
H185        H  0.29124376  0.11620567  0.36285378    -0.05700
C186        C  0.46463487  0.29302844  0.43453584     0.93400
O187        O  0.60781089  0.27808972  0.40722725    -0.82000
C188        C  0.64588925  0.28955616  0.38943463     0.93500
O189        O  0.26521991  0.03729232  0.43953695    -0.82000
Mg190      Mg  0.34220795  0.99948383  0.34142848     1.58200
O191        O  0.50544049  0.28773646  0.42680304    -0.80300
O192        O  0.44494147  0.97631706  0.30776776    -0.82000
O193        O  0.59718794  0.72412458  0.22975144    -0.87600
C194        C  0.73228435  0.76083540  0.27741286     0.88400
Mg195      Mg  0.52408467  0.72010419  0.24116805     1.58100
O196        O  0.63187541  0.61538265  0.26720649    -0.87300
O197        O  0.60766745  0.65954806  0.21033876    -0.74600
C198        C  0.46643708  0.60974242  0.37147801     0.93500
O199        O  0.63857240  0.80731491  0.28137873    -0.74500
O200        O  0.44731643  0.63097578  0.35423949    -0.82000
Mg201      Mg  0.67489389  0.79671527  0.24062980     1.58000
C202        C  0.60600977  0.52825300  0.34181120     0.93400
O203        O  0.71899701  0.79953796  0.19998488    -0.80200
H204        H  0.59310110  0.54450157  0.24456820    -0.05600
C205        C  0.61456043  0.68620382  0.33790163     0.88400
O206        O  0.48233999  0.62434857  0.25121245    -0.74700
O207        O  0.69620520  0.74044481  0.25915845    -0.87500
O208        O  0.62505078  0.54277312  0.31709942    -0.80300
C209        C  0.77388117  0.64571581  0.26285938     0.93500
C210        C  0.74238817  0.77401090  0.19045879     0.93400
Mg211      Mg  0.52682138  0.57037972  0.32116491     1.58000
O212        O  0.49888789  0.59280998  0.36309587    -0.80200
O213        O  0.55083443  0.54249742  0.27987328    -0.74500
O214        O  0.75928793  0.67140159  0.24635711    -0.80300
O215        O  0.65094077  0.85407518  0.22091539    -0.82000
O216        O  0.41444332  0.66398283  0.28973306    -0.80300
C217        C  0.59226854  0.56688985  0.26291433     0.87800
O218        O  0.49580889  0.61291042  0.29557167    -0.87500
O219        O  0.60746456  0.64743860  0.32214430    -0.87600
O220        O  0.57997797  0.70357628  0.33880614    -0.74700
Mg221      Mg  0.68160063  0.66928260  0.23371059     1.58000
O222        O  0.74738188  0.62429922  0.28592719    -0.82000
H223        H  0.55526564  0.68338112  0.19553627    -0.05800
O224        O  0.55055608  0.73903516  0.28322448    -0.87300
H225        H  0.58418483  0.80076507  0.31146459    -0.05600
H226        H  0.45084637  0.54771950  0.27006277    -0.05800
C227        C  0.59019994  0.78342268  0.29246181     0.87800
C228        C  0.58662665  0.69023875  0.21075285     0.88400
C229        C  0.47502573  0.59310546  0.27245896     0.88400
H230        H  0.65043163  0.70526092  0.35152895    -0.05700
O231        O  0.73212618  0.73067383  0.29742489    -0.74800
Mg232      Mg  0.49752520  0.68322566  0.31518487     1.58000
H233        H  0.76373095  0.80531488  0.27663992    -0.05700
C234        C  0.60585455  0.85463245  0.22015216     0.93400
O235        O  0.44493703  0.71296935  0.24972163    -0.82000
C236        C  0.40566960  0.68134798  0.26626049     0.93500
O237        O  0.73437206  0.72817834  0.20086779    -0.82000
Mg238      Mg  0.67593265  0.63592494  0.30596269     1.58200
O239        O  0.55930574  0.81353448  0.22901398    -0.80300
O240        O  0.56227680  0.52828106  0.34903958    -0.82000
O241        O  0.32700222  0.44626326  0.58968951    -0.87600
C242        C  0.26710759  0.31367008  0.53498319     0.88400
Mg243      Mg  0.34598409  0.52846047  0.58116731     1.58100
O244        O  0.40999338  0.38984544  0.55338679    -0.87300
O245        O  0.36358606  0.40369231  0.61115096    -0.74600
C246        C  0.46163992  0.57707518  0.45148000     0.93500
O247        O  0.24262742  0.42423784  0.53965796    -0.74500
O248        O  0.43638720  0.59676809  0.46565794    -0.82000
Mg249      Mg  0.24645847  0.37809183  0.57853921     1.59200
C250        C  0.50993284  0.41244040  0.48409322     0.93400
O251        O  0.24624864  0.33505580  0.61996911    -0.80200
H252        H  0.47583304  0.41418827  0.57945566    -0.05600
C253        C  0.36165913  0.42978274  0.48151123     0.88400
O254        O  0.43742391  0.55695590  0.57159913    -0.74700
O255        O  0.28907611  0.34461715  0.55541830    -0.87500
O256        O  0.48721851  0.38977570  0.50722129    -0.80300
C257        C  0.35826070  0.24157382  0.55007054     0.93500
C258        C  0.25524917  0.29542632  0.62509803     0.93400
Mg259      Mg  0.48159967  0.50430995  0.50362838     1.58000
O260        O  0.47527944  0.54399143  0.46259266    -0.80200
O261        O  0.49310100  0.46641123  0.54567365    -0.74500
O262        O  0.32113735  0.25163749  0.55805553    -0.80300
O263        O  0.20340393  0.41490235  0.60143519    -0.82000
O264        O  0.40893685  0.64000513  0.53076779    -0.80300
C265        C  0.46037292  0.42288095  0.56051294     0.87800
O266        O  0.44591492  0.54438285  0.52683640    -0.87500
O267        O  0.39580436  0.42981226  0.49887788    -0.87600
O268        O  0.35046412  0.46908028  0.48128999    -0.74700
Mg269      Mg  0.34127954  0.32987376  0.58171277     1.58000
O270        O  0.39234645  0.27161287  0.53076054    -0.82000
H271        H  0.36663298  0.47377763  0.62619681    -0.05800
O272        O  0.32270770  0.50534576  0.53845075    -0.87300
H273        H  0.26099873  0.48670914  0.51159542    -0.05600
H274        H  0.51147574  0.58130330  0.55242515    -0.05800
C275        C  0.27482688  0.47339867  0.52952459     0.87800
C276        C  0.35270415  0.44273801  0.60973282     0.88400
C277        C  0.46682190  0.56244067  0.55007872     0.88400
H278        H  0.34087131  0.39522904  0.46688758    -0.05700
O279        O  0.29665389  0.30740684  0.51658834    -0.74800
Mg280      Mg  0.38157867  0.55324740  0.50593260     1.58000
H281        H  0.22213264  0.29094222  0.53293670    -0.05700
C282        C  0.21211780  0.46455487  0.60337749     0.93400
O283        O  0.37057642  0.61652044  0.57368971    -0.82000
C284        C  0.39809668  0.65320720  0.55494956     0.93500
O285        O  0.26473721  0.27108772  0.60557768    -0.82000
Mg286      Mg  0.39301682  0.34953714  0.51218584     1.58200
O287        O  0.25713556  0.50797008  0.59456800    -0.80300
O288        O  0.51548322  0.45933419  0.47700583    -0.82000
O289        O  0.14972416  0.47302621  0.89199365    -0.87600
C290        C  0.09000723  0.34252773  0.94850677     0.88400
Mg291      Mg  0.20417597  0.55913218  0.89852488     1.58100
O292        O  0.00911286  0.40330167  0.93168806    -0.87300
O293        O  0.06836789  0.42554070  0.87261172    -0.74600
C294        C  0.14035368  0.60283298  0.03034659     0.93500
O295        O  0.22057908  0.46893717  0.94254388    -0.74500
O296        O  0.18425216  0.62832626  0.01467233    -0.82000
Mg297      Mg  0.17333128  0.41443951  0.90509430     1.58000
C298        C  0.93099014  0.41776507  0.00144420     0.93400
O299        O  0.13224039  0.35727094  0.86659862    -0.80200
H300        H  0.96546406  0.42244231  0.90545292    -0.05600
C301        C  0.10698181  0.46095986  0.00114295     0.88400
O302        O  0.13221546  0.57291043  0.90946493    -0.74700
O303        O  0.09529558  0.37137068  0.92759823    -0.87500
O304        O  0.93539152  0.40003031  0.97784359    -0.80300
C305        C  0.92266146  0.25365944  0.93782239     0.93500
C306        C  0.08411144  0.31597891  0.86001181     0.93400
Mg307      Mg  0.04573649  0.51957661  0.98034374     1.58000
O308        O  0.09344709  0.56464421  0.02053746    -0.80200
O309        O  0.99693012  0.47500391  0.93900083    -0.74500
O310        O  0.96867061  0.26912449  0.92560525    -0.80300
O311        O  0.25649845  0.46265406  0.88177810    -0.82000
O312        O  0.24635712  0.67652097  0.94560365    -0.80300
C313        C  0.98975999  0.43294309  0.92440851     0.87800
O314        O  0.11896197  0.56746655  0.95517154    -0.87500
O315        O  0.06939055  0.45436756  0.98415709    -0.87600
O316        O  0.15571055  0.50537957  0.00038835    -0.74700
Mg317      Mg  0.02313364  0.35232207  0.90308429     1.58000
O318        O  0.91991627  0.28411628  0.95690825    -0.82000
H319        H  0.13418420  0.49458480  0.85467863    -0.05800
O320        O  0.21323079  0.54444893  0.94158864    -0.87300
H321        H  0.26146612  0.53484217  0.96895920    -0.05600
H322        H  0.07795932  0.58965994  0.92903847    -0.05800
C323        C  0.23373974  0.51760182  0.95130076     0.87800
C324        C  0.11874494  0.46531274  0.87214103     0.88400
C325        C  0.10936406  0.57823923  0.93138826     0.88400
H326        H  0.09786151  0.42799878  0.01628801    -0.05700
O327        O  0.05505950  0.33474340  0.96776597    -0.74800
Mg328      Mg  0.19851391  0.58925057  0.97370452     1.58000
H329        H  0.11515072  0.32336253  0.95036099    -0.05700
C330        C  0.29056960  0.51508869  0.87707832     0.93400
O331        O  0.25826686  0.65027131  0.90296209    -0.82000
C332        C  0.26564566  0.68809498  0.92016651     0.93500
O333        O  0.04066185  0.30163832  0.87451406    -0.82000
Mg334      Mg  0.99510421  0.36851630  0.97248814     1.58200
O335        O  0.27943115  0.55294839  0.88345881    -0.80300
O336        O  0.96775006  0.46730389  0.00874710    -0.82000
O337        O  0.13439574  0.71228045  0.25631788    -0.87600
C338        C  0.05145381  0.76460839  0.20794704     0.88400
Mg339      Mg  0.20721005  0.70892575  0.24709980     1.58100
O340        O  0.00120230  0.61767013  0.21496855    -0.87300
O341        O  0.05578547  0.64984624  0.27582694    -0.74600
C342        C  0.16939703  0.62840227  0.11089024     0.93500
O343        O  0.19446729  0.80945615  0.21005824    -0.74500
O344        O  0.20977047  0.64838291  0.12843478    -0.82000
Mg345      Mg  0.13909726  0.79281308  0.24856060     1.58000
C346        C  0.94654517  0.54270346  0.13865161     0.93400
O347        O  0.08983610  0.78967024  0.28749691    -0.80200
H348        H  0.96669138  0.54433190  0.23612939    -0.05600
C349        C  0.09832355  0.69899901  0.14802017     0.88400
O350        O  0.15248405  0.61707175  0.23224213    -0.74700
O351        O  0.06389856  0.74167067  0.22631420    -0.87500
O352        O  0.94133452  0.55186687  0.16402017    -0.80300
C353        C  0.89043892  0.64822172  0.21718985     0.93500
C354        C  0.03855761  0.76397849  0.29459407     0.93400
Mg355      Mg  0.06507874  0.57952019  0.16023382     1.58000
O356        O  0.11904541  0.60843785  0.11930092    -0.80200
O357        O  0.00937805  0.54661188  0.20090920    -0.74500
O358        O  0.93245698  0.67942732  0.23199486    -0.80300
O359        O  0.21778975  0.84124178  0.27273977    -0.82000
O360        O  0.27295951  0.67011767  0.19552075    -0.80300
C361        C  0.99150773  0.56888605  0.21831050     0.87800
O362        O  0.13703851  0.61648890  0.18703315    -0.87500
O363        O  0.06390054  0.65700719  0.16177796    -0.87600
O364        O  0.15069832  0.71666770  0.14833811    -0.74700
Mg365      Mg  0.99989194  0.66713890  0.24875840     1.58000
O366        O  0.89565327  0.62529516  0.19507160    -0.82000
H367        H  0.13106671  0.67064730  0.29194407    -0.05800
O368        O  0.20950560  0.73925097  0.20576714    -0.87300
H369        H  0.24708675  0.80786846  0.18128121    -0.05600
H370        H  0.11006508  0.54561290  0.20933820    -0.05800
C371        C  0.21907051  0.78658571  0.19873080     0.87800
C372        C  0.10832550  0.67841745  0.27603958     0.88400
C373        C  0.13291445  0.59130568  0.20925510     0.88400
H374        H  0.08364627  0.72095231  0.13521061    -0.05700
O375        O  0.02190758  0.73664950  0.18728574    -0.74800
Mg376      Mg  0.20952886  0.69145239  0.17088323     1.58000
H377        H  0.06621267  0.80915910  0.20940500    -0.05700
C378        C  0.26174982  0.83886313  0.27527340     0.93400
O379        O  0.27809399  0.70036045  0.23947097    -0.82000
C380        C  0.29362403  0.67974988  0.22050634     0.93500
O381        O  0.00133376  0.72075371  0.28197679    -0.82000
Mg382      Mg  0.98203869  0.64264277  0.17658929     1.58200
O383        O  0.26638844  0.79876194  0.26514527    -0.80300
O384        O  0.98957428  0.54213981  0.13081307    -0.82000
O385        O  0.58138748  0.89574083  0.93107124    -0.87600
C386        C  0.72182103  0.96426549  0.88114486     0.88400
Mg387      Mg  0.50215569  0.83629974  0.91292304     1.58100
O388        O  0.65818672  0.04653658  0.89003626    -0.87300
O389        O  0.61454140  0.98026213  0.94813294    -0.74600
C390        C  0.47911895  0.92441525  0.78430785     0.93500
O391        O  0.60558921  0.83295281  0.88034562    -0.74500
O392        O  0.45311585  0.87929222  0.79931676    -0.82000
Mg393      Mg  0.64812470  0.87629824  0.92185584     1.58000
C394        C  0.66160176  0.13313508  0.81822191     0.93400
O395        O  0.69806655  0.91722031  0.96242219    -0.80200
H396        H  0.63899794  0.09420777  0.91346411    -0.05600
C397        C  0.61836223  0.95672125  0.81628669     0.88400
O398        O  0.48450232  0.90857478  0.90325107    -0.74700
O399        O  0.69021717  0.95806341  0.90087408    -0.87500
O400        O  0.67952674  0.12779299  0.84165455    -0.80300
C401        C  0.80821369  0.13389087  0.89345224     0.93500
C402        C  0.73202487  0.96821303  0.96972753     0.93400
Mg403      Mg  0.55708976  0.01552546  0.83626599     1.58000
O404        O  0.51747113  0.97082663  0.79467512    -0.80200
O405        O  0.59275314  0.06379122  0.87807303    -0.74500
O406        O  0.78536144  0.09173412  0.90989853    -0.80300
O407        O  0.59804907  0.78614870  0.94329466    -0.82000
O408        O  0.40337216  0.82176017  0.86736474    -0.80300
C409        C  0.63058328  0.06911243  0.89479552     0.87800
O410        O  0.50868305  0.93966699  0.85984211    -0.87500
O411        O  0.62123226  0.99062843  0.83495514    -0.87600
O412        O  0.57512935  0.90723077  0.81433047    -0.74700
Mg413      Mg  0.69649426  0.02926257  0.92374033     1.58000
O414        O  0.78484691  0.13438583  0.87072151    -0.82000
H415        H  0.54471801  0.91130689  0.96365483    -0.05800
O416        O  0.53796959  0.84957381  0.87286141    -0.87300
H417        H  0.55407399  0.80314435  0.84678446    -0.05600
H418        H  0.47594160  0.97114540  0.88623431    -0.05800
C419        C  0.56496982  0.82744088  0.86586182     0.87800
C420        C  0.57917776  0.92799417  0.94883284     0.88400
C421        C  0.48920685  0.94112661  0.88301127     0.88400
H422        H  0.65330600  0.96967243  0.80204881    -0.05700
O423        O  0.73125291  0.99872668  0.86119811    -0.74800
Mg424      Mg  0.49088973  0.86298445  0.83981439     1.58000
H425        H  0.74132354  0.93920885  0.88065630    -0.05700
C426        C  0.54641593  0.75070671  0.93835033     0.93400
O427        O  0.42648652  0.77133881  0.89237286    -0.82000
C428        C  0.39368664  0.78859997  0.88826974     0.93500
O429        O  0.73586425  0.01018596  0.95699004    -0.82000
Mg430      Mg  0.70314727  0.06201467  0.85165184     1.58200
O431        O  0.51551731  0.76550874  0.92620719    -0.80300
O432        O  0.61320693  0.09566028  0.81012105    -0.82000
O433        O  0.34663757  0.91768592  0.55801533    -0.87600
C434        C  0.26994536  0.97232422  0.61065279     0.88400
Mg435      Mg  0.36497884  0.85493583  0.56756695     1.58100
O436        O  0.41593885  0.05078394  0.60383031    -0.87300
O437        O  0.39483872  0.00385637  0.54227226    -0.74600
C438        C  0.44148418  0.89652363  0.70460633     0.93500
O439        O  0.24983329  0.84005821  0.60249682    -0.74500
O440        O  0.42293577  0.85607778  0.68687451    -0.82000
Mg441      Mg  0.26225093  0.89758711  0.56539860     1.58000
C442        C  0.49951357  0.12116247  0.67799216     0.93400
O443        O  0.26094248  0.94801684  0.52733031    -0.80200
H444        H  0.48720993  0.09710657  0.58208367    -0.05600
C445        C  0.35007183  0.94778814  0.66991344     0.88400
O446        O  0.45196427  0.91975124  0.58425877    -0.74700
O447        O  0.29759621  0.97028157  0.59086792    -0.87500
O448        O  0.47780480  0.12167451  0.65484753    -0.80300
C449        C  0.35956008  0.13916976  0.60421482     0.93500
C450        C  0.27408165  0.99843609  0.52154298     0.93400
Mg451      Mg  0.47226731  0.00123740  0.65671354     1.58000
O452        O  0.45492868  0.94646921  0.69701175    -0.80200
O453        O  0.49472420  0.05793647  0.61653198    -0.74500
O454        O  0.32779442  0.09183262  0.59333537    -0.80300
O455        O  0.22692104  0.82007028  0.53883219    -0.82000
O456        O  0.40880166  0.79384331  0.62080233    -0.80300
C457        C  0.46645815  0.06962944  0.59985979     0.87800
O458        O  0.44592933  0.92979515  0.62961459    -0.87500
O459        O  0.38942607  0.98755887  0.65704424    -0.87600
O460        O  0.33985507  0.89725246  0.66794160    -0.74700
Mg461      Mg  0.36203079  0.04590322  0.57077193     1.58000
O462        O  0.38843638  0.14218537  0.62537952    -0.82000
H463        H  0.39686807  0.93846181  0.52450692    -0.05800
O464        O  0.32943604  0.84427251  0.60872575    -0.87300
H465        H  0.26076488  0.79212815  0.63087148    -0.05600
H466        H  0.51886736  0.96769172  0.60891519    -0.05800
C467        C  0.27932871  0.82348570  0.61438472     0.87800
C468        C  0.37930194  0.95219014  0.54063007     0.88400
C469        C  0.47404364  0.93938363  0.60792556     0.88400
H470        H  0.32358924  0.95605898  0.68312850    -0.05700
O471        O  0.29371802  0.00316894  0.63184748    -0.74800
Mg472      Mg  0.37758806  0.85006131  0.64463220     1.58000
H473        H  0.22481628  0.94764571  0.60987854    -0.05700
C474        C  0.23908438  0.78186760  0.53644049     0.93400
O475        O  0.38611917  0.79065048  0.57573029    -0.82000
C476        C  0.40398329  0.77446887  0.59572565     0.93500
O477        O  0.30607344  0.03983007  0.53687476    -0.82000
Mg478      Mg  0.38718686  0.06185125  0.64290124     1.58200
O479        O  0.28260593  0.78600429  0.54729139    -0.80300
O480        O  0.50062001  0.07770937  0.68556787    -0.82000
O481        O  0.70873453  0.69653805  0.00637887    -0.87600
C482        C  0.67315468  0.67237425  0.08970208     0.88400
Mg483      Mg  0.67301381  0.62505091  0.97831491     1.58100
O484        O  0.80032971  0.68659579  0.06431606    -0.87300
O485        O  0.78978286  0.76719432  0.01838690    -0.74600
C486        C  0.66852423  0.41070829  0.05072930     0.93500
O487        O  0.58851217  0.60768769  0.03319510    -0.74500
O488        O  0.63941523  0.41397784  0.03091996    -0.82000
Mg489      Mg  0.64993078  0.70339921  0.03372569     1.58000
C490        C  0.85096280  0.58353456  0.10386363     0.93400
O491        O  0.69570192  0.80214506  0.04037193    -0.80200
H492        H  0.87671620  0.72953360  0.04541599    -0.05600
C493        C  0.67339913  0.53309257  0.08488277     0.88400
O494        O  0.74721443  0.61206270  0.98116744    -0.74700
O495        O  0.69697023  0.69606481  0.06756025    -0.87500
O496        O  0.84177462  0.62326359  0.10825328    -0.80300
C497        C  0.80827688  0.75091352  0.13318426     0.93500
C498        C  0.72577046  0.83238940  0.06081059     0.93400
Mg499      Mg  0.77298564  0.54804374  0.05110431     1.58000
O500        O  0.71213941  0.45420497  0.05991354    -0.80200
O501        O  0.83910268  0.64372751  0.04355347    -0.74500
O502        O  0.78993372  0.76516789  0.11264519    -0.80300
O503        O  0.60103088  0.70832287  0.99568052    -0.82000
O504        O  0.62153030  0.47338050  0.97144486    -0.80300
C505        C  0.84075336  0.68882879  0.05098966     0.87800
O506        O  0.72535495  0.54976311  0.01551024    -0.87500
O507        O  0.72273056  0.56597329  0.07803314    -0.87600
O508        O  0.63553072  0.50592262  0.06689983    -0.74700
Mg509      Mg  0.78520005  0.75886517  0.06616288     1.58000
O510        O  0.81737583  0.71081907  0.13174328    -0.82000
H511        H  0.76447990  0.74931453  0.97800287    -0.05800
O512        O  0.62854659  0.56731130  0.01256304    -0.87300
H513        H  0.54948095  0.52341139  0.02627204    -0.05600
H514        H  0.79368983  0.57725954  0.99066040    -0.05800
C515        C  0.58724299  0.56427724  0.02377976     0.87800
C516        C  0.75434212  0.73804548  0.99985145     0.88400
C517        C  0.75635160  0.57861169  0.99515193     0.88400
H518        H  0.66181756  0.52880316  0.10678085    -0.05700
O519        O  0.69196232  0.64869499  0.10536512    -0.74800
Mg520      Mg  0.63338684  0.49312111  0.01936711     1.58000
H521        H  0.63551652  0.67165443  0.09586212    -0.05700
C522        C  0.58222406  0.67238480  0.97581332     0.93400
O523        O  0.63551370  0.55047512  0.94829063    -0.82000
C524        C  0.62076991  0.49838703  0.94896444     0.93500
O525        O  0.76206603  0.82429015  0.07192228    -0.82000
Mg526      Mg  0.76828238  0.63643509  0.10390878     1.58200
O527        O  0.60134160  0.64030905  0.97046995    -0.80300
O528        O  0.82418154  0.54566359  0.08588512    -0.82000
O529        O  0.39737874  0.38463242  0.81051242    -0.87600
C530        C  0.42505191  0.43234365  0.72801686     0.88400
Mg531      Mg  0.46399390  0.41842148  0.84084821     1.58100
O532        O  0.40945539  0.30029827  0.74620736    -0.87300
O533        O  0.33224822  0.30296591  0.79513384    -0.74600
C534        C  0.67902358  0.42668341  0.76947200     0.93500
O535        O  0.48495139  0.50972597  0.78703293    -0.74500
O536        O  0.67404072  0.45412524  0.78975418    -0.82000
Mg537      Mg  0.39097340  0.44543337  0.78431921     1.58000
C538        C  0.51257473  0.25423835  0.70807947     0.93400
O539        O  0.29338995  0.39716253  0.77813749    -0.80200
H540        H  0.36526852  0.22359355  0.76386529    -0.05600
C541        C  0.56366589  0.43282600  0.73373561     0.88400
O542        O  0.48139451  0.34709254  0.83475596    -0.74700
O543        O  0.40129185  0.40424246  0.74916226    -0.87500
O544        O  0.47954185  0.27136227  0.70254079    -0.80300
C545        C  0.34846068  0.29814818  0.68075539     0.93500
C546        C  0.26177528  0.36534728  0.75860836     0.93400
Mg547      Mg  0.54377560  0.32629791  0.76420555     1.58000
O548        O  0.63679309  0.38521920  0.75816373    -0.80200
O549        O  0.44930566  0.26153847  0.76884777    -0.74500
O550        O  0.33409770  0.31629184  0.70136426    -0.80300
O551        O  0.38001674  0.48427974  0.82276493    -0.82000
O552        O  0.61044940  0.46455127  0.84922203    -0.80300
C553        C  0.40605529  0.26016185  0.75951932     0.87800
O554        O  0.54054236  0.37049885  0.79979993    -0.87500
O555        O  0.53039408  0.38202745  0.73830687    -0.87600
O556        O  0.58841401  0.46765585  0.75340527    -0.74700
Mg557      Mg  0.34115870  0.31475943  0.74751558     1.58000
O558        O  0.39259553  0.29617231  0.68074792    -0.82000
H559        H  0.34513578  0.32226502  0.83643006    -0.05800
O560        O  0.52356598  0.46872402  0.80829271    -0.87300
H561        H  0.56729280  0.54992678  0.79672183    -0.05600
H562        H  0.51565734  0.30116004  0.82298196    -0.05800
C563        C  0.52703597  0.51114607  0.79772911     0.87800
C564        C  0.35764530  0.33650284  0.81506276     0.88400
C565        C  0.51374305  0.33879226  0.81952717     0.88400
H566        H  0.57033835  0.44838857  0.71244017    -0.05700
O567        O  0.45059091  0.41745907  0.71139325    -0.74800
Mg568      Mg  0.59562853  0.46067102  0.80083439     1.58000
H569        H  0.42450364  0.47044285  0.72371549    -0.05700
C570        C  0.40176249  0.49524271  0.84698588     0.93400
O571        O  0.53508556  0.45331266  0.87245614    -0.82000
C572        C  0.58588502  0.46541557  0.87181964     0.93500
O573        O  0.27251099  0.33255090  0.74541767    -0.82000
Mg574      Mg  0.46337435  0.34142872  0.71038975     1.58200
O575        O  0.43858603  0.48340063  0.85435613    -0.80300
O576        O  0.54643262  0.27382885  0.72831472    -0.82000
C577        C  0.61898081  0.48672273  0.89773227    -0.15700
C578        C  0.59735000  0.46513343  0.92314234    -0.30800
H579        H  0.65992608  0.52498278  0.89611163     0.13300
H580        H  0.55810691  0.42500277  0.92483773     0.13900
C581        C  0.52014262  0.17071026  0.69647557    -0.15700
C582        C  0.51053481  0.21184397  0.68911608    -0.30800
H583        H  0.53582447  0.17000962  0.71712940     0.13300
H584        H  0.49250300  0.21035872  0.66879704     0.13900
C585        C  0.51639041  0.68996391  0.94619912    -0.15700
C586        C  0.53055338  0.65815478  0.96121893    -0.30800
H587        H  0.47420541  0.66622259  0.93784513     0.13300
H588        H  0.49949239  0.61318569  0.96168907     0.13900
C589        C  0.46537450  0.92725400  0.75429676    -0.15700
C590        C  0.44779705  0.88576801  0.73494454    -0.30800
H591        H  0.47582343  0.96896219  0.74714011     0.13300
H592        H  0.43899895  0.84417911  0.74125229     0.13900
C593        C  0.90820925  0.54328334  0.11811288    -0.15700
C594        C  0.89190074  0.58081190  0.12154755    -0.30800
H595        H  0.89570028  0.51581830  0.10001919     0.13300
H596        H  0.90834025  0.61041821  0.13879729     0.13900
C597        C  0.37662752  0.51386120  0.86844624    -0.15700
C598        C  0.34185881  0.53155767  0.86100327    -0.30800
H599        H  0.37587853  0.50020546  0.88985465     0.13300
H600        H  0.34365993  0.54701988  0.83988217     0.13900
C601        C  0.13987369  0.61608894  0.06076256    -0.15700
C602        C  0.18015978  0.62740086  0.07991563    -0.30800
H603        H  0.09982869  0.60824273  0.06854075     0.13300
H604        H  0.22025990  0.63416625  0.07298258     0.13900
C605        C  0.35266301  0.77604232  0.91145354    -0.15700
C606        C  0.29736990  0.74591461  0.90781841    -0.30800
H607        H  0.36694944  0.77021215  0.93163040     0.13300
H608        H  0.28295769  0.74922813  0.88720926     0.13900
C609        C  0.86199462  0.18405191  0.90205427    -0.15700
C610        C  0.87207493  0.20017305  0.92925782    -0.30800
H611        H  0.89125071  0.21098462  0.88586042     0.13300
H612        H  0.84004377  0.17645938  0.94503106     0.13900
C613        C  0.27106537  0.28952634  0.65322803    -0.15700
C614        C  0.31440251  0.28148531  0.65578066    -0.30800
H615        H  0.25747284  0.30480741  0.67065240     0.13300
H616        H  0.32993529  0.26929934  0.63789772     0.13900
C617        C  0.41448401  0.71208599  0.56196395    -0.15700
C618        C  0.41430087  0.72815595  0.58901046    -0.30800
H619        H  0.41889606  0.73980646  0.54472696     0.13300
H620        H  0.41260248  0.70158465  0.60622675     0.13900
C621        C  0.36219455  0.18944468  0.59145116    -0.15700
C622        C  0.36045547  0.19429677  0.56323910    -0.30800
H623        H  0.36642122  0.22291374  0.60495846     0.13300
H624        H  0.36165392  0.16350993  0.54965204     0.13900
C625        C  0.45086025  0.60443227  0.40199547    -0.15700
C626        C  0.47770739  0.59142123  0.42136313    -0.30800
H627        H  0.41693700  0.61038299  0.40845024     0.13300
H628        H  0.51088777  0.58488910  0.41414449     0.13900
C629        C  0.34935513  0.66686920  0.25686245    -0.15700
C630        C  0.33871786  0.66970098  0.22907221    -0.30800
H631        H  0.31883392  0.66066234  0.27282365     0.13300
H632        H  0.36773070  0.67244833  0.21303858     0.13900
C633        C  0.82314122  0.64191746  0.25392983    -0.15700
C634        C  0.83603979  0.64129635  0.22628023    -0.30800
H635        H  0.85014180  0.64143740  0.27005144     0.13300
H636        H  0.80693277  0.63734035  0.21019108     0.13900
C637        C  0.77790342  0.79571467  0.16566259    -0.15700
C638        C  0.81204263  0.77622440  0.16026833    -0.30800
H639        H  0.76442354  0.81298461  0.14911629     0.13300
H640        H  0.82626583  0.76092133  0.17743639     0.13900
C641        C  0.47441270  0.34575171  0.44698542    -0.15700
C642        C  0.51783014  0.37788362  0.46362614    -0.30800
H643        H  0.43953045  0.35283565  0.44657217     0.13300
H644        H  0.55014520  0.36781538  0.46699205     0.13900
C645        C  0.35892891  0.89423152  0.29415558    -0.15700
C646        C  0.30629534  0.88326434  0.29217229    -0.30800
H647        H  0.37446313  0.87336299  0.28094313     0.13300
H648        H  0.29420735  0.90859063  0.30427661     0.13900
C649        C  0.27352528  0.06302727  0.48667283    -0.15700
C650        C  0.25520533  0.00969086  0.49515290    -0.30800
H651        H  0.29337404  0.09766506  0.50142129     0.13300
H652        H  0.23611156  0.97502459  0.48038199     0.13900
C653        C  0.79889532  0.03581585  0.00203379    -0.15700
C654        C  0.76533787  0.98090633  0.99508149    -0.30800
H655        H  0.81802694  0.06782818  0.98567834     0.13300
H656        H  0.74864624  0.94806106  0.01104607     0.13900
C657        C  0.87062409  0.32301752  0.01846152    -0.15700
C658        C  0.88723434  0.37782670  0.02096989    -0.30800
H659        H  0.88980738  0.31044363  0.00254873     0.13300
H660        H  0.87296608  0.39275431  0.03822734     0.13900
C661        C  0.61838529  0.19260469  0.23708160    -0.15700
C662        C  0.59672903  0.15053114  0.25648761    -0.30800
H663        H  0.62632721  0.23417394  0.24258444     0.13300
H664        H  0.58788798  0.10907594  0.25002427     0.13900
C665        C  0.66590601  0.34809579  0.08941920    -0.15700
C666        C  0.65482704  0.35506946  0.06244027    -0.30800
H667        H  0.67624168  0.38110339  0.10464136     0.13300
H668        H  0.64116221  0.32056354  0.04774214     0.13900
C669        C  0.71814643  0.87754146  0.07280195    -0.15700
C670        C  0.70863536  0.87984720  0.10069867    -0.30800
H671        H  0.71946906  0.90885887  0.05861715     0.13300
H672        H  0.70213895  0.84572166  0.11455259     0.13900
C673        C  0.56741949  0.91470880  0.20618340    -0.15700
C674        C  0.60867750  0.90335638  0.20644281    -0.30800
H675        H  0.53039171  0.89197806  0.21933309     0.13300
H676        H  0.64637073  0.92984366  0.19410396     0.13900
C677        C  0.02099097  0.78165930  0.31927492    -0.15700
C678        C  0.96589705  0.75802893  0.32400115    -0.30800
H679        H  0.05086856  0.79975651  0.33624412     0.13300
H680        H  0.93693024  0.74158071  0.30656240     0.13900
C681        C  0.63999852  0.52089040  0.36296632    -0.15700
C682        C  0.69556500  0.55613922  0.36162345    -0.30800
H683        H  0.62040671  0.49207901  0.38052705     0.13300
H684        H  0.71293011  0.58744594  0.34485087     0.13900
C685        C  0.71482614  0.33777607  0.42666051    -0.15700
C686        C  0.70286099  0.33229732  0.39880590    -0.30800
H687        H  0.68941374  0.30289572  0.44090909     0.13300
H688        H  0.72982907  0.36576178  0.38421574     0.13900
C689        C  0.16124696  0.86977938  0.41393391    -0.15700
C690        C  0.17553242  0.87566424  0.38641991    -0.30800
H691        H  0.18951834  0.90022690  0.42910471     0.13300
H692        H  0.14977064  0.84230183  0.37178350     0.13900
C693        C  0.15074907  0.69522772  0.52763903    -0.15700
C694        C  0.20272257  0.73332560  0.51888413    -0.30800
H695        H  0.14123615  0.69039237  0.54991015     0.13300
H696        H  0.21238122  0.73886803  0.49664386     0.13900
C697        C  0.02408487  0.26074327  0.82241032    -0.15700
C698        C  0.07628110  0.28902355  0.83276341    -0.30800
H699        H  0.98844979  0.23824550  0.83654011     0.13300
H700        H  0.11199914  0.30939375  0.81855646     0.13900
C701        C  0.74318333  0.42771490  0.73293857    -0.15700
C702        C  0.73467571  0.43905473  0.75957459    -0.30800
H703        H  0.71268760  0.41986308  0.71686084     0.13300
H704        H  0.76671929  0.45022580  0.77524074     0.13900
C705        C  0.20355765  0.37304330  0.72218889    -0.15700
C706        C  0.21251716  0.36793095  0.74969410    -0.30800
H707        H  0.23426555  0.37832207  0.70651488     0.13300
H708        H  0.18486902  0.36834154  0.76565356     0.13900
C709        C  0.75481151  0.20432446  0.80351325    -0.15700
C710        C  0.69961648  0.18112057  0.79987039    -0.30800
H711        H  0.76948480  0.18864899  0.82027730     0.13300
H712        H  0.68361293  0.19214304  0.78183088     0.13900
C713        C  0.87672004  0.46619990  0.57120457    -0.15700
C714        C  0.91313441  0.49365966  0.59227648    -0.30800
H715        H  0.84178626  0.42339822  0.57439004     0.13300
H716        H  0.94943085  0.53510554  0.58785508     0.13900
C717        C  0.17011409  0.51850206  0.62243826    -0.15700
C718        C  0.16884668  0.46998092  0.61797418    -0.30800
H719        H  0.20121484  0.55809401  0.61270817     0.13300
H720        H  0.13547334  0.43142651  0.62771393     0.13900
loop_ 
_geom_bond_atom_site_label_1 
_geom_bond_atom_site_label_2 
_geom_bond_distance 
_geom_bond_site_symmetry_2 
_ccdc_geom_bond_type 
O1           Mg3   2.121       .  S
O1           Mg9   2.146       .  S
O1           C36   1.233       .  S
C2           O15   1.237       .  S
C2           O39   1.273   1_655  A
C2           H41   1.081       .  S
Mg3          O32   2.148       .  S
Mg3          O47   2.342       .  S
Mg3          O43   2.213       .  S
Mg3          O14   2.297       .  S
O4          Mg46   2.111       .  S
O4          Mg29   2.121       .  S
O4           C25   1.238       .  S
O5           C36   1.264   1_455  A
O5          Mg29   2.276       .  S
C6            O8   1.282       .  A
C6           O20   1.276       .  A
C6          C714   1.489       .  S
O7           C35   1.269       .  A
O7           Mg9   2.288       .  S
O8          Mg40   2.350       .  S
Mg9          O15   2.110       .  S
Mg9          O23   2.207       .  S
Mg9          O11   2.302       .  S
C10          O48   1.268       .  A
C10          O16   1.262       .  A
C10         C717   1.467       .  S
O11          C18   1.273   1_655  A
H12          C25   1.082       .  S
C13          O27   1.239   1_655  S
C13          O28   1.276       .  A
C13          H38   1.082       .  S
O14          C37   1.272       .  A
O15         Mg29   2.147   1_655  S
O16         Mg46   2.254       .  S
C17          O30   1.274       .  A
C17          O22   1.258       .  A
C17         C705   1.481       .  S
C18          O45   1.262       .  A
C18         C697   1.462       .  S
Mg19         O26   2.151   1_455  S
Mg19         O27   2.164       .  S
Mg19         O20   2.299   1_455  S
Mg19         O21   2.335       .  S
Mg19         O48   2.316       .  S
O21          C25   1.276       .  A
O22         Mg29   2.228       .  S
O23          C42   1.267       .  A
O24          C44   1.290       .  A
O24         Mg40   2.404       .  S
O26         Mg40   2.175       .  S
O26          C37   1.238       .  S
O27         Mg46   2.202       .  S
O28         Mg40   2.332       .  S
Mg29         O45   2.188       .  S
O30         Mg46   2.344       .  S
H31          C36   1.081       .  S
O32         Mg40   2.146       .  S
O32          C35   1.236       .  S
H33          C35   1.081       .  S
H34          C37   1.082       .  S
O39         Mg46   2.313       .  S
C42          O47   1.278       .  A
C42         C709   1.461       .  S
O43          C44   1.269       .  A
C44         C701   1.484       .  S
O49         Mg51   2.151       .  S
O49         Mg57   2.166   1_655  S
O49          C84   1.231       .  S
C50          O63   1.235       .  S
C50          O87   1.270   1_455  A
C50          H89   1.081       .  S
Mg51         O80   2.140       .  S
Mg51         O95   2.327   1_655  S
Mg51         O91   2.261       .  S
Mg51         O62   2.291       .  S
O52         Mg94   2.236       .  S
O52         Mg77   2.222       .  S
O52          C73   1.266       .  A
O53          C84   1.264       .  A
O53         Mg77   2.279       .  S
C54          O56   1.283       .  A
C54          O68   1.269       .  A
C54         C685   1.480       .  S
O55          C83   1.267   1_455  A
O55         Mg57   2.287       .  S
O56         Mg88   2.334       .  S
Mg57         O63   2.126       .  S
Mg57         O71   2.234       .  S
Mg57         O59   2.348       .  S
C58          O96   1.269       .  A
C58          O64   1.264       .  A
C58         C682   1.467       .  S
O59          C66   1.279       .  A
H60          C73   1.083       .  S
C61          O75   1.239       .  S
C61          O76   1.274       .  A
C61          H86   1.082       .  S
O62          C85   1.270       .  A
O63         Mg77   2.170   1_455  S
O64         Mg94   2.246       .  S
C65          O78   1.262       .  A
C65          O70   1.261       .  A
C65         C678   1.450       .  S
C66          O93   1.264       .  A
C66         C689   1.474       .  S
Mg67         O74   2.145       .  S
Mg67         O75   2.132       .  S
Mg67         O68   2.259       .  S
Mg67         O69   2.337       .  S
Mg67         O96   2.291       .  S
O69          C73   1.275       .  A
O70         Mg77   2.214       .  S
O71          C90   1.273       .  A
O72          C92   1.291       .  A
O72         Mg88   2.410       .  S
O74         Mg88   2.157       .  S
O74          C85   1.237       .  S
O75         Mg94   2.112       .  S
O76         Mg88   2.314       .  S
Mg77         O93   2.217   1_655  S
O78         Mg94   2.239       .  S
H79          C84   1.082       .  S
O80         Mg88   2.145       .  S
O80          C83   1.234       .  S
H81          C83   1.082       .  S
H82          C85   1.082       .  S
O87         Mg94   2.303       .  S
C90          O95   1.279       .  A
C90         C693   1.475       .  S
O91          C92   1.277       .  A
C92         C713   1.505       .  S
O97         Mg99   2.120       .  S
O97        Mg105   2.147       .  S
O97         C132   1.233       .  S
C98         O111   1.240       .  S
C98         O135   1.276       .  A
C98         H137   1.081       .  S
Mg99        O128   2.144       .  S
Mg99        O143   2.324       .  S
Mg99        O139   2.200       .  S
Mg99        O110   2.298       .  S
O100       Mg142   2.179       .  S
O100       Mg125   2.189       .  S
O100        C121   1.266       .  A
O101        C132   1.264       .  A
O101       Mg125   2.274       .  S
C102        O104   1.284       .  A
C102        O116   1.280       .  A
C102        C661   1.507       .  S
O103        C131   1.270       .  A
O103       Mg105   2.297       .  S
O104       Mg136   2.350       .  S
Mg105       O111   2.093       .  S
Mg105       O119   2.207       .  S
Mg105       O107   2.333       .  S
C106        O144   1.270       .  A
C106        O112   1.263       .  A
C106        C673   1.465       .  S
O107        C114   1.277       .  A
H108        C121   1.084   1_565  S
C109        O123   1.238       .  S
C109        O124   1.277       .  A
C109        H134   1.081       .  S
O110        C133   1.273       .  A
O111       Mg125   2.133       .  S
O112       Mg142   2.247   1_565  S
C113        O126   1.275       .  A
C113        O118   1.251       .  A
C113        C670   1.493       .  S
C114        O141   1.257       .  A
C114        C653   1.459       .  S
Mg115       O122   2.163       .  S
Mg115       O123   2.170       .  S
Mg115       O116   2.327       .  S
Mg115       O117   2.346       .  S
Mg115       O144   2.315   1_545  S
O117        C121   1.275       .  A
O118       Mg125   2.212   1_565  S
O119        C138   1.268       .  A
O120        C140   1.292       .  A
O120       Mg136   2.426       .  S
O122       Mg136   2.165       .  S
O122        C133   1.239       .  S
O123       Mg142   2.202       .  S
O124       Mg136   2.337       .  S
Mg125       O141   2.145       .  S
O126       Mg142   2.395   1_565  S
H127        C132   1.082       .  S
O128       Mg136   2.151       .  S
O128        C131   1.236       .  S
H129        C131   1.081       .  S
H130        C133   1.082       .  S
O135       Mg142   2.324       .  S
C138        O143   1.276       .  A
C138        C657   1.458       .  S
O139        C140   1.266       .  A
C140        C665   1.490       .  S
O145       Mg147   2.080       .  S
O145       Mg153   2.131       .  S
O145        C180   1.234       .  S
C146        O159   1.238       .  S
C146        O183   1.273       .  A
C146        H185   1.081       .  S
Mg147       O176   2.151       .  S
Mg147       O191   2.317       .  S
Mg147       O187   2.161       .  S
Mg147       O158   2.292       .  S
O148       Mg190   2.111   1_545  S
O148       Mg173   2.135       .  S
O148        C169   1.240   1_545  S
O149        C180   1.264       .  A
O149       Mg173   2.279       .  S
C150        O152   1.284       .  A
C150        O164   1.277       .  A
C150        C662   1.496       .  S
O151        C179   1.273       .  A
O151       Mg153   2.293       .  S
O152       Mg184   2.361       .  S
Mg153       O159   2.111       .  S
Mg153       O167   2.226       .  S
Mg153       O155   2.311       .  S
C154        O192   1.267       .  A
C154        O160   1.262       .  A
C154        C645   1.471       .  S
O155        C162   1.273       .  A
H156        C169   1.082       .  S
C157        O171   1.239       .  S
C157        O172   1.277       .  A
C157        H182   1.081       .  S
O158        C181   1.271       .  A
O159       Mg173   2.121       .  S
O160       Mg190   2.250       .  S
C161        O174   1.273       .  A
C161        O166   1.259       .  A
C161        C690   1.478       .  S
C162        O189   1.263       .  A
C162        C649   1.462       .  S
Mg163       O170   2.140       .  S
Mg163       O171   2.159       .  S
Mg163       O164   2.304       .  S
Mg163       O165   2.345       .  S
Mg163       O192   2.315   1_545  S
O165        C169   1.278   1_545  A
O166       Mg173   2.231   1_565  S
O167        C186   1.268       .  A
O168        C188   1.292       .  A
O168       Mg184   2.425       .  S
O170       Mg184   2.172       .  S
O170        C181   1.238       .  S
O171       Mg190   2.199   1_545  S
O172       Mg184   2.334       .  S
Mg173       O189   2.211       .  S
O174       Mg190   2.333       .  S
H175        C180   1.081       .  S
O176       Mg184   2.154       .  S
O176        C179   1.241       .  S
H177        C179   1.081       .  S
H178        C181   1.082       .  S
O183       Mg190   2.314   1_545  S
C186        O191   1.275       .  A
C186        C641   1.466       .  S
O187        C188   1.263       .  A
C188        C686   1.482       .  S
O193       Mg195   2.058       .  S
O193       Mg201   2.127       .  S
O193        C228   1.230       .  S
C194        O207   1.233       .  S
C194        O231   1.266       .  A
C194        H233   1.081       .  S
Mg195       O224   2.118       .  S
Mg195       O239   2.310       .  S
Mg195       O235   2.153       .  S
Mg195       O206   2.323       .  S
O196       Mg238   2.139       .  S
O196       Mg221   2.129       .  S
O196        C217   1.239       .  S
O197        C228   1.258       .  A
O197       Mg221   2.245       .  S
C198        O200   1.279       .  A
C198        O212   1.280       .  A
C198        C625   1.505       .  S
O199        C227   1.269       .  A
O199       Mg201   2.280       .  S
O200       Mg232   2.323       .  S
Mg201       O207   2.125       .  S
Mg201       O215   2.224       .  S
Mg201       O203   2.274       .  S
C202        O240   1.268       .  A
C202        O208   1.268       .  A
C202        C681   1.475       .  S
O203        C210   1.268       .  A
H204        C217   1.082       .  S
C205        O219   1.242       .  S
C205        O220   1.283       .  A
C205        H230   1.081       .  S
O206        C229   1.276       .  A
O207       Mg221   2.170       .  S
O208       Mg238   2.266       .  S
C209        O222   1.284       .  A
C209        O214   1.262       .  A
C209        C633   1.493       .  S
C210        O237   1.267       .  A
C210        C637   1.455       .  S
Mg211       O218   2.165       .  S
Mg211       O219   2.158       .  S
Mg211       O212   2.345       .  S
Mg211       O213   2.339       .  S
Mg211       O240   2.304       .  S
O213        C217   1.277       .  A
O214       Mg221   2.228       .  S
O215        C234   1.268       .  A
O216        C236   1.293       .  A
O216       Mg232   2.431       .  S
O218       Mg232   2.139       .  S
O218        C229   1.241       .  S
O219       Mg238   2.230       .  S
O220       Mg232   2.364       .  S
Mg221       O237   2.183       .  S
O222       Mg238   2.377       .  S
H223        C228   1.081       .  S
O224       Mg232   2.123       .  S
O224        C227   1.237       .  S
H225        C227   1.080       .  S
H226        C229   1.081       .  S
O231       Mg238   2.287       .  S
C234        O239   1.275       .  A
C234        C674   1.461       .  S
O235        C236   1.260       .  A
C236        C629   1.481       .  S
O241       Mg243   2.088       .  S
O241       Mg249   2.129       .  S
O241        C276   1.234       .  S
C242        O255   1.238       .  S
C242        O279   1.275       .  A
C242        H281   1.081       .  S
Mg243       O272   2.143       .  S
Mg243       O287   2.328       .  S
Mg243       O283   2.189       .  S
Mg243       O254   2.293       .  S
O244       Mg286   2.196       .  S
O244       Mg269   2.221       .  S
O244        C265   1.268       .  A
O245        C276   1.266       .  A
O245       Mg269   2.290       .  S
C246        O248   1.284       .  A
C246        O260   1.274       .  A
C246        C626   1.495       .  S
O247        C275   1.272       .  A
O247       Mg249   2.285       .  S
O248       Mg280   2.355       .  S
Mg249       O255   2.151       .  S
Mg249       O263   2.222       .  S
Mg249       O251   2.306       .  S
C250        O288   1.269       .  A
C250        O256   1.263       .  A
C250        C642   1.463       .  S
O251        C258   1.268       .  A
H252        C265   1.084       .  S
C253        O268   1.277       .  A
C253        H278   1.083       .  S
C253        O267   1.268       .  A
O254        C277   1.271       .  A
O255       Mg269   2.122       .  S
O256       Mg286   2.277       .  S
C257        O270   1.271       .  A
C257        O262   1.262       .  A
C257        C622   1.479       .  S
C258        O285   1.257       .  A
C258        C613   1.452       .  S
Mg259       O266   2.142       .  S
Mg259       O260   2.296       .  S
Mg259       O261   2.363       .  S
Mg259       O288   2.297       .  S
Mg259       O267   2.223       .  S
O261        C265   1.280       .  A
O262       Mg269   2.245       .  S
O263        C282   1.268       .  A
O264        C284   1.294       .  A
O264       Mg280   2.425       .  S
O266       Mg280   2.182       .  S
O266        C277   1.238       .  S
O267       Mg286   2.270       .  S
O268       Mg280   2.344       .  S
Mg269       O285   2.210       .  S
O270       Mg286   2.319       .  S
H271        C276   1.081       .  S
O272       Mg280   2.140       .  S
O272        C275   1.240       .  S
H273        C275   1.081       .  S
H274        C277   1.082       .  S
O279       Mg286   2.323       .  S
C282        O287   1.277       .  A
C282        C718   1.466       .  S
O283        C284   1.266       .  A
C284        C617   1.486       .  S
O289       Mg291   2.084       .  S
O289       Mg297   2.134       .  S
O289        C324   1.231       .  S
C290        O303   1.236       .  S
C290        O327   1.272       .  A
C290        H329   1.081       .  S
Mg291       O320   2.138       .  S
Mg291       O335   2.307       .  S
Mg291       O331   2.179       .  S
Mg291       O302   2.290       .  S
O292       Mg334   2.115   1_455  S
O292       Mg317   2.142       .  S
O292        C313   1.243   1_455  S
O293        C324   1.261       .  A
O293       Mg317   2.266       .  S
C294        O296   1.286       .  A
C294        O308   1.277       .  A
C294        C601   1.502       .  S
O295        C323   1.271       .  A
O295       Mg297   2.281       .  S
O296       Mg328   2.369   1_554  S
Mg297       O303   2.147       .  S
Mg297       O311   2.275       .  S
Mg297       O299   2.316       .  S
C298        O336   1.267       .  A
C298        O304   1.262   1_554  A
C298        C658   1.473       .  S
O299        C306   1.277       .  A
H300        C313   1.082       .  S
C301        O316   1.278       .  A
C301        H326   1.083       .  S
C301        O315   1.268   1_554  A
O302        C325   1.272       .  A
O303       Mg317   2.155       .  S
O304       Mg334   2.260       .  S
C305        O318   1.272       .  A
C305        O310   1.264       .  A
C305        C610   1.483       .  S
C306        O333   1.266       .  A
C306        C698   1.463       .  S
Mg307       O314   2.133       .  S
Mg307       O308   2.312   1_556  S
Mg307       O309   2.364   1_455  S
Mg307       O336   2.319   1_456  S
Mg307       O315   2.226       .  S
O309        C313   1.283       .  A
O310       Mg317   2.261   1_655  S
O311        C330   1.276       .  A
O312        C332   1.297       .  A
O312       Mg328   2.457       .  S
O314       Mg328   2.174       .  S
O314        C325   1.240       .  S
O315       Mg334   2.276   1_455  S
O316       Mg328   2.352   1_554  S
Mg317       O333   2.187       .  S
O318       Mg334   2.318       .  S
H319        C324   1.081       .  S
O320       Mg328   2.143       .  S
O320        C323   1.239       .  S
H321        C323   1.080       .  S
H322        C325   1.081       .  S
O327       Mg334   2.312   1_455  S
C330        O335   1.274       .  A
C330        C598   1.470       .  S
O331        C332   1.264       .  A
C332        C606   1.488       .  S
O337       Mg339   2.128       .  S
O337       Mg345   2.192       .  S
O337        C372   1.256       .  A
C338        O351   1.234       .  S
C338        O375   1.268       .  A
C338        H377   1.081       .  S
Mg339       O368   2.131       .  S
Mg339       O383   2.330       .  S
Mg339       O379   2.142       .  S
Mg339       O350   2.302       .  S
O340       Mg382   2.125   1_455  S
O340       Mg365   2.132   1_455  S
O340        C361   1.241   1_455  S
O341        C372   1.257       .  A
O341       Mg365   2.265   1_455  S
C342        O344   1.284       .  A
C342        O356   1.278       .  A
C342        C602   1.512       .  S
O343        C371   1.270       .  A
O343       Mg345   2.284       .  S
O344       Mg376   2.357       .  S
Mg345       O351   2.122       .  S
Mg345       O359   2.226       .  S
Mg345       O347   2.283       .  S
C346        O384   1.265       .  A
C346        O352   1.262       .  A
C346        C593   1.463       .  S
O347        C354   1.270       .  A
H348        C361   1.082       .  S
C349        O363   1.241       .  S
C349        O364   1.281       .  A
C349        H374   1.081       .  S
O350        C373   1.274       .  A
O351       Mg365   2.179   1_455  S
O352       Mg382   2.240       .  S
C353        O366   1.280       .  A
C353        O358   1.260       .  A
C353        C634   1.492       .  S
C354        O381   1.265       .  A
C354        C677   1.455       .  S
Mg355       O362   2.154       .  S
Mg355       O363   2.161       .  S
Mg355       O356   2.335       .  S
Mg355       O357   2.350       .  S
Mg355       O384   2.298   1_455  S
O357        C361   1.279   1_455  A
O358       Mg365   2.233       .  S
O359        C378   1.270       .  A
O360        C380   1.296       .  A
O360       Mg376   2.444       .  S
O362       Mg376   2.151       .  S
O362        C373   1.240       .  S
O363       Mg382   2.220   1_455  S
O364       Mg376   2.356       .  S
Mg365       O381   2.162   1_655  S
O366       Mg382   2.369       .  S
H367        C372   1.083       .  S
O368       Mg376   2.131       .  S
O368        C371   1.238       .  S
H369        C371   1.081       .  S
H370        C373   1.082       .  S
O375       Mg382   2.298   1_455  S
C378        O383   1.278       .  A
C378        C646   1.465       .  S
O379        C380   1.261       .  A
C380        C630   1.483       .  S
O385       Mg387   2.150       .  S
O385       Mg393   2.234       .  S
O385        C420   1.257       .  A
C386        O399   1.238       .  S
C386        O423   1.272       .  A
C386        H425   1.081       .  S
Mg387       O416   2.097       .  S
Mg387       O431   2.264       .  S
Mg387       O427   2.183       .  S
Mg387       O398   2.338       .  S
O388       Mg430   2.131       .  S
O388       Mg413   2.124       .  S
O388        C409   1.238       .  S
O389        C420   1.260       .  A
O389       Mg413   2.278   1_565  S
C390        O392   1.285       .  A
C390        O404   1.276       .  A
C390        C589   1.499       .  S
O391        C419   1.273       .  A
O391       Mg393   2.314       .  S
O392       Mg424   2.361       .  S
Mg393       O399   2.174       .  S
Mg393       O407   2.363       .  S
Mg393       O395   2.323       .  S
C394        O432   1.269       .  A
C394        O400   1.268       .  A
C394        C710   1.478       .  S
O395        C402   1.278       .  A
H396        C409   1.082       .  S
C397        O412   1.278       .  A
C397        H422   1.084       .  S
C397        O411   1.269       .  A
O398        C421   1.278       .  A
O399       Mg413   2.182   1_565  S
O400       Mg430   2.283       .  S
C401        O414   1.274       .  A
C401        O406   1.266       .  A
C401        C609   1.485       .  S
C402        O429   1.263   1_565  A
C402        C654   1.461       .  S
Mg403       O410   2.129   1_545  S
Mg403       O404   2.308   1_545  S
Mg403       O405   2.330       .  S
Mg403       O432   2.302       .  S
Mg403       O411   2.228   1_545  S
O405        C409   1.275       .  A
O406       Mg413   2.264       .  S
O407        C426   1.281       .  A
O408        C428   1.284       .  A
O408       Mg424   2.467       .  S
O410       Mg424   2.142       .  S
O410        C421   1.241       .  S
O411       Mg430   2.265   1_565  S
O412       Mg424   2.345       .  S
Mg413       O429   2.151       .  S
O414       Mg430   2.314       .  S
H415        C420   1.083       .  S
O416       Mg424   2.211       .  S
O416        C419   1.238       .  S
H417        C419   1.082       .  S
H418        C421   1.081       .  S
O423       Mg430   2.304   1_565  S
C426        O431   1.272       .  A
C426        C585   1.484       .  S
O427        C428   1.249       .  A
C428        C605   1.495       .  S
O433       Mg435   2.098       .  S
O433       Mg441   2.151       .  S
O433        C468   1.233       .  S
C434        O447   1.238       .  S
C434        O471   1.273   1_565  A
C434        H473   1.080       .  S
Mg435       O464   2.148       .  S
Mg435       O479   2.317       .  S
Mg435       O475   2.178       .  S
Mg435       O446   2.298       .  S
O436       Mg478   2.114       .  S
O436       Mg461   2.145       .  S
O436        C457   1.239       .  S
O437        C468   1.263   1_545  A
O437       Mg461   2.268       .  S
C438        O440   1.284       .  A
C438        O452   1.280       .  A
C438        C590   1.509       .  S
O439        C467   1.267       .  A
O439       Mg441   2.281       .  S
O440       Mg472   2.350       .  S
Mg441       O447   2.115       .  S
Mg441       O455   2.241       .  S
Mg441       O443   2.301       .  S
C442        O480   1.270       .  A
C442        O448   1.268       .  A
C442        C581   1.479       .  S
O443        C450   1.274       .  A
H444        C457   1.082       .  S
C445        O459   1.239       .  S
C445        O460   1.277       .  A
C445        H470   1.081       .  S
O446        C469   1.273       .  A
O447       Mg461   2.147   1_565  S
O448       Mg478   2.272       .  S
C449        O462   1.273       .  A
C449        O454   1.257       .  A
C449        C621   1.483       .  S
C450        O477   1.265   1_565  A
C450        C650   1.463   1_565  S
Mg451       O458   2.155   1_545  S
Mg451       O459   2.143   1_545  S
Mg451       O452   2.335   1_545  S
Mg451       O453   2.343       .  S
Mg451       O480   2.302       .  S
O453        C457   1.278       .  A
O454       Mg461   2.224       .  S
O455        C474   1.271       .  A
O456        C476   1.293       .  A
O456       Mg472   2.424       .  S
O458       Mg472   2.155       .  S
O458        C469   1.239       .  S
O459       Mg478   2.192   1_565  S
O460       Mg472   2.340       .  S
Mg461       O477   2.203       .  S
O462       Mg478   2.355       .  S
H463        C468   1.081       .  S
O464       Mg472   2.141       .  S
O464        C467   1.235       .  S
H465        C467   1.081       .  S
H466        C469   1.082       .  S
O471       Mg478   2.317       .  S
C474        O479   1.274       .  A
C474        C694   1.464       .  S
O475        C476   1.263       .  A
C476        C618   1.486       .  S
O481       Mg483   2.166   1_554  S
O481       Mg489   2.178       .  S
O481        C516   1.233   1_554  S
C482        O495   1.237       .  S
C482        O519   1.274       .  A
C482        H521   1.081       .  S
Mg483       O512   2.164   1_556  S
Mg483       O527   2.282       .  S
Mg483       O523   2.282       .  S
Mg483       O494   2.284       .  S
O484       Mg526   2.233       .  S
O484       Mg509   2.248       .  S
O484        C505   1.267       .  A
O485        C516   1.266   1_554  A
O485       Mg509   2.291       .  S
C486        O488   1.285       .  A
C486        O500   1.272       .  A
C486        C666   1.487       .  S
O487        C515   1.267       .  A
O487       Mg489   2.292       .  S
O488       Mg520   2.345       .  S
Mg489       O495   2.163       .  S
Mg489       O503   2.326   1_554  S
Mg489       O491   2.365       .  S
C490        O528   1.264       .  A
C490        O496   1.269       .  A
C490        C594   1.459       .  S
O491        C498   1.283       .  A
H492        C505   1.083       .  S
C493        O507   1.237       .  S
C493        O508   1.271       .  A
C493        H518   1.082       .  S
O494        C517   1.269       .  A
O495       Mg509   2.160       .  S
O496       Mg526   2.274       .  S
C497        O510   1.261       .  A
C497        O502   1.262       .  A
C497        C638   1.452       .  S
C498        O525   1.265       .  A
C498        C669   1.487       .  S
Mg499       O507   2.140       .  S
Mg499       O500   2.286       .  S
Mg499       O501   2.340       .  S
Mg499       O528   2.222       .  S
Mg499       O506   2.181       .  S
O501        C505   1.276       .  A
O502       Mg509   2.228       .  S
O503        C522   1.279       .  A
O504        C524   1.282       .  A
O504       Mg520   2.342   1_556  S
O506       Mg520   2.218       .  S
O506        C517   1.267   1_554  A
O507       Mg526   2.101       .  S
O508       Mg520   2.297       .  S
Mg509       O525   2.231       .  S
O510       Mg526   2.236       .  S
H511        C516   1.082       .  S
O512       Mg520   2.149       .  S
O512        C515   1.232       .  S
H513        C515   1.081       .  S
H514        C517   1.083       .  S
O519       Mg526   2.326       .  S
C522        O527   1.276       .  A
C522        C586   1.466       .  S
O523        C524   1.277       .  A
C524        C578   1.480       .  S
O529       Mg531   2.163       .  S
O529       Mg537   2.174       .  S
O529        C564   1.232       .  S
C530        O543   1.233       .  S
C530        O567   1.269       .  A
C530        H569   1.081       .  S
Mg531       O560   2.166       .  S
Mg531       O575   2.339       .  S
Mg531       O571   2.284       .  S
Mg531       O542   2.282       .  S
O532       Mg574   2.164       .  S
O532       Mg557   2.143       .  S
O532        C553   1.238       .  S
O533        C564   1.266       .  A
O533       Mg557   2.292       .  S
C534        O536   1.283       .  A
C534        O548   1.269       .  A
C534        C702   1.483       .  S
O535        C563   1.267       .  A
O535       Mg537   2.291       .  S
O536       Mg568   2.347       .  S
Mg537       O543   2.133       .  S
Mg537       O551   2.229       .  S
Mg537       O539   2.356       .  S
C538        O576   1.268       .  A
C538        O544   1.265       .  A
C538        C582   1.462       .  S
O539        C546   1.279       .  A
H540        C553   1.081       .  S
C541        O555   1.237       .  S
C541        O556   1.270       .  A
C541        H566   1.081       .  S
O542        C565   1.268       .  A
O543       Mg557   2.157       .  S
O544       Mg574   2.238       .  S
C545        O558   1.262       .  A
C545        O550   1.261       .  A
C545        C614   1.451       .  S
C546        O573   1.262       .  A
C546        C706   1.479       .  S
Mg547       O554   2.126       .  S
Mg547       O555   2.153       .  S
Mg547       O548   2.259       .  S
Mg547       O549   2.308       .  S
Mg547       O576   2.276       .  S
O549        C553   1.272       .  A
O550       Mg557   2.218       .  S
O551        C570   1.273       .  A
O552        C572   1.283       .  A
O552       Mg568   2.345       .  S
O554       Mg568   2.150       .  S
O554        C565   1.236       .  S
O555       Mg574   2.100       .  S
O556       Mg568   2.293       .  S
Mg557       O573   2.215       .  S
O558       Mg574   2.228       .  S
H559        C564   1.082       .  S
O560       Mg568   2.165       .  S
O560        C563   1.232       .  S
H561        C563   1.081       .  S
H562        C565   1.082       .  S
O567       Mg574   2.308       .  S
C570        O575   1.281       .  A
C570        C597   1.476       .  S
O571        C572   1.279       .  A
C572        C577   1.480       .  S
C577        C578   1.346       .  D
C577        H579   1.087       .  S
C578        H580   1.086       .  S
C581        C582   1.343       .  D
C581        H583   1.086       .  S
C582        H584   1.088       .  S
C585        C586   1.344       .  D
C585        H587   1.089       .  S
C586        H588   1.088       .  S
C589        C590   1.357       .  D
C589        H591   1.087       .  S
C590        H592   1.086       .  S
C593        C594   1.342       .  D
C593        H595   1.086       .  S
C594        H596   1.086       .  S
C597        C598   1.343       .  D
C597        H599   1.086       .  S
C598        H600   1.086       .  S
C601        C602   1.361       .  D
C601        H603   1.087       .  S
C602        H604   1.086       .  S
C605        C606   1.335       .  D
C605        H607   1.089       .  S
C606        H608   1.088       .  S
C609        C610   1.359       .  D
C609        H611   1.087       .  S
C610        H612   1.087       .  S
C613        C614   1.345       .  D
C613        H615   1.087       .  S
C614        H616   1.087       .  S
C617        C618   1.369       .  D
C617        H619   1.086       .  S
C618        H620   1.086       .  S
C621        C622   1.358       .  D
C621        H623   1.086       .  S
C622        H624   1.086       .  S
C625        C626   1.354       .  D
C625        H627   1.086       .  S
C626        H628   1.087       .  S
C629        C630   1.374       .  D
C629        H631   1.086       .  S
C630        H632   1.086       .  S
C633        C634   1.370       .  D
C633        H635   1.086       .  S
C634        H636   1.086       .  S
C637        C638   1.340       .  D
C637        H639   1.087       .  S
C638        H640   1.089       .  S
C641        C642   1.339       .  D
C641        H643   1.089       .  S
C642        H644   1.086       .  S
C645        C646   1.343       .  D
C645        H647   1.086       .  S
C646        H648   1.088       .  S
C649        C650   1.347       .  D
C649        H651   1.087       .  S
C650        H652   1.087   1_545  S
C653        C654   1.352   1_544  D
C653        H655   1.087   1_554  S
C654        H656   1.086   1_556  S
C657        C658   1.342       .  D
C657        H659   1.085       .  S
C658        H660   1.085       .  S
C661        C662   1.356       .  D
C661        H663   1.086       .  S
C662        H664   1.087       .  S
C665        C666   1.364       .  D
C665        H667   1.086       .  S
C666        H668   1.086       .  S
C669        C670   1.366       .  D
C669        H671   1.084       .  S
C670        H672   1.086       .  S
C673        C674   1.342       .  D
C673        H675   1.085       .  S
C674        H676   1.089       .  S
C677        C678   1.342   1_455  D
C677        H679   1.088       .  S
C678        H680   1.089       .  S
C681        C682   1.341       .  D
C681        H683   1.086       .  S
C682        H684   1.088       .  S
C685        C686   1.364       .  D
C685        H687   1.087       .  S
C686        H688   1.086       .  S
C689        C690   1.357       .  D
C689        H691   1.087       .  S
C690        H692   1.087       .  S
C693        C694   1.342       .  D
C693        H695   1.087       .  S
C694        H696   1.086       .  S
C697        C698   1.347       .  D
C697        H699   1.088   1_455  S
C698        H700   1.088       .  S
C701        C702   1.361       .  D
C701        H703   1.086       .  S
C702        H704   1.086       .  S
C705        C706   1.360       .  D
C705        H707   1.087       .  S
C706        H708   1.087       .  S
C709        C710   1.342       .  D
C709        H711   1.088       .  S
C710        H712   1.086       .  S
C713        C714   1.358       .  D
C713        H715   1.086       .  S
C714        H716   1.087       .  S
C717        C718   1.342       .  D
C717        H719   1.086       .  S
C718        H720   1.089       .  S
