geometry optimzed in LAMMPS
_audit_creation_date              2020-12-01 
_audit_creation_method            'lammps2cif' 
_symmetry_space_group_name_H-M    'P1' 
_symmetry_Int_Tables_number       1 
_symmetry_cell_setting            triclinic 
loop_ 
_symmetry_equiv_pos_as_xyz 
  x,y,z 
_cell_length_a                    49.81389664 
_cell_length_b                    49.86366022318145 
_cell_length_c                    48.422689530159836 
_cell_angle_alpha                 90.26858886712859 
_cell_angle_beta                  90.17745281522535 
_cell_angle_gamma                 119.99814377205848 
loop_ 
_atom_site_label 
_atom_site_type_symbol 
_atom_site_fract_x 
_atom_site_fract_y 
_atom_site_fract_z 
_atom_site_charge 
O1          O  0.34254889  0.40980795  0.30691509    -0.81100
O2          O  0.37198814  0.40982630  0.43551799    -0.65800
O3          O  0.34363921  0.38972330  0.36065779    -1.12400
C4          C  0.26876007  0.41579450  0.39278082     1.05700
O5          O  0.32422345  0.37991309  0.45003273    -0.79000
O6          O  0.27271106  0.35685466  0.41872434    -0.66600
Ni7        Ni  0.37276479  0.41008517  0.33180141     1.34900
C8          C  0.26733843  0.34394689  0.39513620     0.84500
O9          O  0.39057584  0.38988986  0.39300996    -0.79600
O10         O  0.40688323  0.41128329  0.35164545    -0.89900
C11         C  0.35332872  0.39243954  0.45381962     0.84100
O12         O  0.38294873  0.45003444  0.34519880    -0.68100
O13         O  0.27711461  0.41332308  0.41715749    -0.87300
C14         C  0.39398092  0.46129568  0.36889128     0.84900
C15         C  0.41047284  0.39995568  0.37387891     1.06500
H16         H  0.33801727  0.43432254  0.40224301     0.38300
O17         O  0.32825032  0.41203290  0.40121058    -1.10000
O18         O  0.28229006  0.35778144  0.37359456    -0.66700
Ni19       Ni  0.31153957  0.40020208  0.36494793     1.26300
O20         O  0.38937276  0.44411669  0.38990251    -0.66900
O21         O  0.28008270  0.41109872  0.37086574    -0.79200
C22         C  0.31324938  0.39753155  0.30620315     0.84300
O23         O  0.29662420  0.38920537  0.32772758    -0.66400
Ni24       Ni  0.30169354  0.39718387  0.43226251     1.27400
Ni25       Ni  0.35941477  0.40096653  0.39766498     1.26100
H26         H  0.33467509  0.36762425  0.35825047     0.38800
O27         O  0.42029620  0.34136937  0.69350332    -0.81100
O28         O  0.41225870  0.37254260  0.56822962    -0.65800
O29         O  0.39463105  0.34512277  0.64292636    -1.12400
C30         C  0.41591248  0.26736700  0.60876443     1.05700
O31         O  0.38111744  0.32458292  0.55356091    -0.79000
O32         O  0.35893617  0.27245148  0.58349811    -0.66600
Ni33       Ni  0.41725479  0.37257856  0.67241821     1.34900
C34         C  0.34502398  0.26876374  0.60629444     0.84500
O35         O  0.39627776  0.39363435  0.61245225    -0.79600
O36         O  0.41553999  0.40666218  0.65541216    -0.89900
C37         C  0.39356031  0.35371150  0.55038499     0.84100
O38         O  0.45701572  0.38529278  0.65709703    -0.68100
O39         O  0.41586848  0.27766101  0.58463352    -0.87300
C40         C  0.46688734  0.39530989  0.63302308     0.84900
C41         C  0.40544012  0.41213666  0.63308870     1.06500
H42         H  0.43642948  0.33708701  0.60128860     0.38300
O43         O  0.41419237  0.32816576  0.60174618    -1.10000
O44         O  0.35825447  0.28501367  0.62762708    -0.66700
Ni45       Ni  0.40123169  0.31081487  0.63737432     1.26300
O46         O  0.44861973  0.38956776  0.61256580    -0.66900
O47         O  0.40884109  0.27702529  0.63057087    -0.79200
C48         C  0.40157432  0.31239784  0.69517867     0.84300
O49         O  0.38862574  0.29581781  0.67401293    -0.66400
Ni50       Ni  0.39900666  0.30200779  0.57023789     1.27400
Ni51       Ni  0.40496409  0.36073851  0.60617378     1.26100
H52         H  0.37286169  0.33774425  0.64588116     0.38800
O53         O  0.07869524  0.41799093  0.31096567    -0.81100
O54         O  0.09184705  0.45723479  0.43612490    -0.65800
O55         O  0.10716514  0.44695523  0.36082398    -1.12400
C56         C  0.08452211  0.34723116  0.39306994     1.05700
O57         O  0.12194986  0.43909385  0.45001352    -0.79000
O58         O  0.14274070  0.40910072  0.41819093    -0.66600
Ni59       Ni  0.08543018  0.45380637  0.33190573     1.34900
C60         C  0.15565551  0.41844256  0.39493518     0.84500
O61         O  0.10816507  0.49449997  0.39274645    -0.79600
O62         O  0.09061562  0.49095213  0.34934794    -0.89900
C63         C  0.11047725  0.45660974  0.45363564     0.84100
O64         O  0.04545135  0.42951657  0.34756747    -0.68100
O65         O  0.08567014  0.35774553  0.41743761    -0.87300
C66         C  0.03633739  0.42884060  0.37212402     0.84900
C67         C  0.10047128  0.00528735  0.37233788     1.06500
H68         H  0.06528645  0.39764926  0.40268983     0.38300
O69         O  0.08756983  0.41032574  0.40168574    -1.10000
O70         O  0.14181964  0.42087061  0.37387217    -0.66700
Ni71       Ni  0.09893238  0.40538989  0.36534517     1.26300
O72         O  0.05485777  0.43934513  0.39263071    -0.66900
O73         O  0.09024908  0.36361116  0.37129261    -0.79200
C74         C  0.09712389  0.40761130  0.30766711     0.84300
O75         O  0.11006376  0.40267309  0.32804224    -0.66400
Ni76       Ni  0.10315205  0.39881889  0.43247753     1.27400
Ni77       Ni  0.09817530  0.45254912  0.39801873     1.26100
H78         H  0.12906300  0.46060775  0.35774972     0.38800
O79         O  0.16108827  0.08072421  0.69086702    -0.81100
O80         O  0.13144516  0.03928966  0.56556045    -0.65800
O81         O  0.15930420  0.05168095  0.64061962    -1.12400
C82         C  0.23317852  0.15136337  0.60553913     1.05700
O83         O  0.17957985  0.05699412  0.55175426    -0.79000
O84         O  0.23150095  0.08970164  0.58198093    -0.66600
Ni85       Ni  0.13121111  0.04559647  0.66968747     1.34900
C86         C  0.23609975  0.08096354  0.60519096     0.84500
O87         O  0.11156340  0.00315170  0.60983496    -0.79600
O88         O  0.09809428  0.00890310  0.65260197    -0.89900
C89         C  0.15053441  0.03971528  0.54802861     0.84100
O90         O  0.11711541  0.07120048  0.65388674    -0.68100
O91         O  0.22347924  0.13958626  0.58156997    -0.87300
C92         C  0.10763257  0.07123514  0.62953984     0.84900
C93         C  0.09322705  0.49338857  0.63032056     1.06500
H94         H  0.16497966  0.09966097  0.59786459     0.38300
O95         O  0.17471680  0.08711929  0.59900709    -1.10000
O96         O  0.22019183  0.07852816  0.62647457    -0.66700
Ni97       Ni  0.19216963  0.09341093  0.63499500     1.26300
O98         O  0.11358334  0.05872155  0.60925270    -0.66900
O99         O  0.22421773  0.13555762  0.62783110    -0.79200
C100        C  0.19029510  0.09285473  0.69295329     0.84300
O101        O  0.20736001  0.09762453  0.67206775    -0.66400
Ni102      Ni  0.20070178  0.09799342  0.56777404     1.27400
Ni103      Ni  0.14339550  0.04502859  0.60362546     1.26100
H104        H  0.16782947  0.03830679  0.64387006     0.38800
O105        O  0.07654944  0.15442070  0.30692575    -0.81100
O106        O  0.04108038  0.12652427  0.43395470    -0.65800
O107        O  0.05072078  0.15305291  0.35881491    -1.12400
C108        C  0.15075940  0.22997348  0.39262460     1.05700
O109        O  0.05889666  0.17472360  0.44791825    -0.79000
O110        O  0.08924965  0.22609813  0.41730550    -0.66600
Ni111      Ni  0.04386060  0.12431847  0.32987036     1.34900
C112        C  0.07995155  0.23011396  0.39409273     0.84500
O113        O  0.00357967  0.10614986  0.39028404    -0.79600
O114        O  0.00895545  0.09078125  0.34821862    -0.89900
C115        C  0.04159958  0.14575837  0.45149870     0.84100
O116        O  0.07187052  0.11267209  0.34491978    -0.68100
O117        O  0.14037031  0.22009744  0.41678642    -0.87300
C118        C  0.07212118  0.10285581  0.36901165     0.84900
C119        C  0.49373806  0.08677525  0.37041861     1.06500
H120        H  0.10053290  0.16029268  0.40083743     0.38300
O121        O  0.08770254  0.16973628  0.39996052    -1.10000
O122        O  0.07706207  0.21385406  0.37281922    -0.66700
Ni123      Ni  0.09244839  0.18641634  0.36393179     1.26300
O124        O  0.05939393  0.10825885  0.38949444    -0.66900
O125        O  0.13430454  0.21949575  0.37063355    -0.79200
C126        C  0.09038146  0.18381263  0.30563249     0.84300
O127        O  0.09558216  0.20084767  0.32681378    -0.66400
Ni128      Ni  0.09923896  0.19638023  0.43116192     1.27400
Ni129      Ni  0.04556952  0.13798186  0.39586851     1.26100
H130        H  0.03695497  0.16118552  0.35582962     0.38800
O131        O  0.43502939  0.09319708  0.69424151    -0.81100
O132        O  0.46206800  0.08943116  0.56552241    -0.65800
O133        O  0.45394875  0.11085934  0.63988847    -1.12400
C134        C  0.35298453  0.08459434  0.60717922     1.05700
O135        O  0.44524209  0.12019007  0.55059805    -0.79000
O136        O  0.41888664  0.14486710  0.58224003    -0.66600
Ni137      Ni  0.46445516  0.09246151  0.66943487     1.34900
C138        C  0.42379090  0.15636147  0.60638548     0.84500
O139        O  0.50105358  0.11044553  0.60790289    -0.79600
O140        O  0.49720035  0.09105211  0.64992071    -0.89900
C141        C  0.46146485  0.10724325  0.54721292     0.84100
O142        O  0.43502489  0.05173826  0.65738921    -0.68100
O143        O  0.36497539  0.08976523  0.58312587    -0.87300
C144        C  0.43390919  0.03949810  0.63399854     0.84900
C145        C  0.01172381  0.10172450  0.62750985     1.06500
H146        H  0.40381732  0.06572144  0.59742741     0.38300
O147        O  0.41632814  0.08797116  0.59908836    -1.10000
O148        O  0.42241649  0.14115829  0.62783051    -0.66700
Ni149      Ni  0.41075241  0.09884965  0.63541031     1.26300
O150        O  0.44522754  0.05581970  0.61222000    -0.66900
O151        O  0.36799334  0.08657462  0.62924573    -0.79200
C152        C  0.41546348  0.10239468  0.69420720     0.84300
O153        O  0.40565390  0.10865234  0.67243633    -0.66400
Ni154      Ni  0.40560231  0.10430665  0.56827950     1.27400
Ni155      Ni  0.45853170  0.09894619  0.60319032     1.26100
H156        H  0.46650955  0.13309652  0.64169160     0.38800
O157        O  0.08300937  0.15734328  0.18989479    -0.81100
O158        O  0.08553645  0.12774581  0.06268567    -0.65800
O159        O  0.10640677  0.15602835  0.13747097    -1.12400
C160        C  0.08269149  0.23257587  0.10535916     1.05700
O161        O  0.11668835  0.17522134  0.04818522    -0.79000
O162        O  0.14048340  0.22684390  0.07942357    -0.66600
Ni163      Ni  0.08649448  0.12773694  0.16691695     1.34900
C164        C  0.15386989  0.23180057  0.10273597     0.84500
O165        O  0.10469914  0.10813023  0.10496175    -0.79600
O166        O  0.08866685  0.09465496  0.14841179    -0.89900
C167        C  0.10367331  0.14607274  0.04462021     0.84100
O168        O  0.04573458  0.11378740  0.15332807    -0.68100
O169        O  0.08459882  0.22349473  0.08112791    -0.87300
C170        C  0.03461422  0.10463657  0.12925031     0.84900
C171        C  0.09751634  0.08978454  0.12523537     1.06500
H172        H  0.06254732  0.16298587  0.09639668     0.38300
O173        O  0.08482186  0.17221162  0.09718548    -1.10000
O174        O  0.14018279  0.21696827  0.12434347    -0.66700
Ni175      Ni  0.09750930  0.18915414  0.13337410     1.26300
O176        O  0.05167439  0.11110689  0.10797853    -0.66900
O177        O  0.08797581  0.22183376  0.12744547    -0.79200
C178        C  0.09910704  0.18662223  0.19174948     0.84300
O179        O  0.10964554  0.20379342  0.17065995    -0.66400
Ni180      Ni  0.10001989  0.19837451  0.06598192     1.27400
Ni181      Ni  0.09481067  0.14022833  0.10050677     1.26100
H182        H  0.12848103  0.16443045  0.13960195     0.38800
O183        O  0.15625508  0.07714047  0.80718114    -0.81100
O184        O  0.12461238  0.08390149  0.93305630    -0.65800
O185        O  0.15353726  0.10154872  0.85875105    -1.12400
C186        C  0.22835776  0.07598901  0.89294579     1.05700
O187        O  0.17255447  0.11242950  0.94870768    -0.79000
O188        O  0.22462987  0.13390542  0.91887465    -0.66600
Ni189      Ni  0.12590579  0.08109411  0.82876256     1.34900
C190        C  0.22930483  0.14757218  0.89585937     0.84500
O191        O  0.10625046  0.10250773  0.88908659    -0.79600
O192        O  0.09261192  0.08404605  0.84597522    -0.89900
C193        C  0.14357030  0.10192161  0.95120416     0.84100
O194        O  0.11151796  0.04073471  0.84313934    -0.68100
O195        O  0.21815297  0.07651720  0.91701885    -0.87300
C196        C  0.10105074  0.03035236  0.86697847     0.84900
C197        C  0.08798707  0.09462263  0.86838719     1.06500
H198        H  0.15825722  0.05738665  0.90024265     0.38300
O199        O  0.16820725  0.07970216  0.89984662    -1.10000
O200        O  0.21348620  0.13456692  0.87432826    -0.66700
Ni201      Ni  0.18610836  0.09224743  0.86427671     1.26300
O202        O  0.10687560  0.04813494  0.88790356    -0.66900
O203        O  0.21850122  0.08254959  0.87102251    -0.79200
C204        C  0.18558044  0.09406561  0.80630250     0.84300
O205        O  0.20199537  0.10487005  0.82790867    -0.66400
Ni206      Ni  0.19428909  0.09387217  0.93157406     1.27400
Ni207      Ni  0.13725475  0.09124545  0.89529152     1.26100
H208        H  0.16221261  0.12356827  0.85624946     0.38800
O209        O  0.07909646  0.42071646  0.19130662    -0.81100
O210        O  0.03879534  0.40887856  0.06574905    -0.65800
O211        O  0.05098424  0.39356254  0.14063158    -1.12400
C212        C  0.15109839  0.41912195  0.10623502     1.05700
O213        O  0.05769206  0.37967680  0.05117766    -0.79000
O214        O  0.08937055  0.35979668  0.08185580    -0.66600
Ni215      Ni  0.04431515  0.41547142  0.16957624     1.34900
C216        C  0.08088008  0.34670674  0.10515655     0.84500
O217        O  0.00215847  0.39127409  0.10967200    -0.79600
O218        O  0.00767879  0.41160917  0.15202928    -0.89900
C219        C  0.03965318  0.39060411  0.04797066     0.84100
O220        O  0.07019358  0.45515636  0.15396162    -0.68100
O221        O  0.13971985  0.41748101  0.08220846    -0.87300
C222        C  0.06987600  0.46440714  0.12967442     0.84900
C223        C  0.49203392  0.39992972  0.12991818     1.06500
H224        H  0.09915863  0.43635111  0.09825498     0.38300
O225        O  0.08686225  0.41405689  0.09922601    -1.10000
O226        O  0.07828892  0.36018580  0.12643793    -0.66700
Ni227      Ni  0.09290228  0.40288019  0.13524174     1.26300
O228        O  0.05713040  0.44572356  0.10948926    -0.66900
O229        O  0.13512591  0.41283922  0.12840405    -0.79200
C230        C  0.09189981  0.40424516  0.19322682     0.84300
O231        O  0.09682634  0.39197042  0.17229159    -0.66400
Ni232      Ni  0.09831661  0.39914740  0.06795663     1.27400
Ni233      Ni  0.04442745  0.40250266  0.10365756     1.26100
H234        H  0.03773359  0.37165673  0.14383929     0.38800
O235        O  0.41268493  0.33608414  0.81296834    -0.81100
O236        O  0.45466571  0.36596773  0.93677170    -0.65800
O237        O  0.44392934  0.33810588  0.86175972    -1.12400
C238        C  0.34611777  0.26013517  0.89616340     1.05700
O239        O  0.43996748  0.31840216  0.95043801    -0.79000
O240        O  0.41176395  0.26667762  0.91931089    -0.66600
Ni241      Ni  0.45018057  0.36517974  0.83186769     1.34900
C242        C  0.41928460  0.26244784  0.89534832     0.84500
O243        O  0.49083270  0.38759109  0.89253265    -0.79600
O244        O  0.48845073  0.39713781  0.84756799    -0.89900
C245        C  0.45551950  0.34756158  0.95429807     0.84100
O246        O  0.42801325  0.38328990  0.84723636    -0.68100
O247        O  0.35810647  0.26863441  0.92022387    -0.87300
C248        C  0.42479603  0.39030669  0.87171874     0.84900
C249        C  0.00213879  0.40401814  0.87100709     1.06500
H250        H  0.39474170  0.32935061  0.90504489     0.38300
O251        O  0.40832300  0.32082013  0.90333544    -1.10000
O252        O  0.41903493  0.27745322  0.87438614    -0.66700
Ni253      Ni  0.40272021  0.30427455  0.86694896     1.26300
O254        O  0.43361751  0.38160828  0.89284253    -0.66900
O255        O  0.36124753  0.27113611  0.87379909    -0.79200
C256        C  0.40255146  0.30741474  0.80936195     0.84300
O257        O  0.39905471  0.28991007  0.82953985    -0.66400
Ni258      Ni  0.39938738  0.29437383  0.93411353     1.27400
Ni259      Ni  0.44970086  0.35395018  0.89869283     1.26100
H260        H  0.45789994  0.33016656  0.85904532     0.38800
O261        O  0.34178960  0.42477673  0.19257371    -0.81100
O262        O  0.37062110  0.45818180  0.06478763    -0.65800
O263        O  0.34300444  0.44825076  0.13976036    -1.12400
C264        C  0.26685185  0.34850789  0.10542460     1.05700
O265        O  0.32269183  0.44119094  0.05034368    -0.79000
O266        O  0.27149754  0.41253060  0.08140465    -0.66600
Ni267      Ni  0.37199836  0.45560571  0.16864960     1.34900
C268        C  0.26672596  0.42018705  0.10513605     0.84500
O269        O  0.39001652  0.49559652  0.10854946    -0.79600
O270        O  0.40601328  0.48916389  0.14975201    -0.89900
C271        C  0.35178054  0.45812656  0.04705799     0.84100
O272        O  0.38199618  0.42614954  0.15417872    -0.68100
O273        O  0.27525960  0.35999630  0.08134582    -0.87300
C274        C  0.39266981  0.42618694  0.13036156     0.84900
C275        C  0.40950644  0.00515057  0.12827153     1.06500
H276        H  0.33621946  0.39877517  0.09684700     0.38300
O277        O  0.32679879  0.41159081  0.09827213    -1.10000
O278        O  0.28188358  0.42078483  0.12649383    -0.66700
Ni279      Ni  0.31022482  0.40619324  0.13451585     1.26300
O280        O  0.38814136  0.43946076  0.10977051    -0.66900
O281        O  0.27803279  0.36413520  0.12769425    -0.79200
C282        C  0.31241650  0.40878891  0.19319678     0.84300
O283        O  0.29557346  0.40194628  0.17169596    -0.66400
Ni284      Ni  0.29999610  0.40100281  0.06718328     1.27400
Ni285      Ni  0.35852038  0.45354071  0.10277221     1.26100
H286        H  0.33451043  0.46172243  0.14266768     0.38800
O287        O  0.41128415  0.06899998  0.80591517    -0.81100
O288        O  0.40978933  0.03787491  0.93364210    -0.65800
O289        O  0.39013032  0.04652949  0.85897311    -1.12400
C290        C  0.41756507  0.14759928  0.89245660     1.05700
O291        O  0.37944109  0.05539268  0.94805489    -0.79000
O292        O  0.35769225  0.08533961  0.91751756    -0.66600
Ni293      Ni  0.41054551  0.03804276  0.82984501     1.34900
C294        C  0.34406858  0.07656148  0.89429854     0.84500
O295        O  0.38979535  0.99953463  0.89069211    -0.79600
O296        O  0.41055983  0.00426226  0.84897341    -0.89900
C297        C  0.39191604  0.03878762  0.95173988     0.84100
O298        O  0.45088341  0.06692736  0.84344506    -0.68100
O299        O  0.41514079  0.13655897  0.91664214    -0.87300
C300        C  0.46181962  0.06721470  0.86727748     0.84900
C301        C  0.39902972  0.48927016  0.87111067     1.06500
H302        H  0.43472658  0.09640981  0.90073185     0.38300
O303        O  0.41240272  0.08392692  0.89981887    -1.10000
O304        O  0.35762564  0.07496524  0.87268233    -0.66700
Ni305      Ni  0.40031085  0.08890504  0.86388626     1.26300
O306        O  0.44432831  0.05479748  0.88811368    -0.66900
O307        O  0.41125685  0.13132600  0.87035449    -0.79200
C308        C  0.39849140  0.08555854  0.80552442     0.84300
O309        O  0.38912036  0.09281918  0.82704814    -0.66400
Ni310      Ni  0.39773619  0.09558208  0.93109261     1.27400
Ni311      Ni  0.40117956  0.04176243  0.89582560     1.26100
H312        H  0.36805926  0.03332473  0.85649294     0.38800
C313        C  0.36304645  0.47945343  0.02315092    -0.05700
C314        C  0.39179149  0.48815632  0.01087035    -0.33100
C315        C  0.40163370  0.00727045  0.98743461     0.36100
C316        C  0.38297276  0.01859744  0.97640286    -0.06100
C317        C  0.35466028  0.01039567  0.98918295    -0.33000
C318        C  0.34466448  0.49111398  0.01214977     0.36000
H319        H  0.40637473  0.47966944  0.01911997     0.16400
O320        O  0.42983857  0.01541821  0.97602537    -0.60500
H321        H  0.33982337  0.01870653  0.98116550     0.16400
O322        O  0.31681161  0.48401200  0.02378619    -0.60600
H323        H  0.32201290  0.49972373  0.03856608     0.43400
H324        H  0.42577686  0.99826426  0.96313550     0.43300
C325        C  0.39836338  0.45963861  0.87420443    -0.05700
C326        C  0.41058822  0.45390872  0.89814593    -0.33100
C327        C  0.41742754  0.42982588  0.89863057     0.36100
C328        C  0.41156934  0.41093689  0.87498735    -0.06100
C329        C  0.39620430  0.41483419  0.85228293    -0.33000
C330        C  0.38999440  0.43915130  0.85163731     0.36000
H331        H  0.41704631  0.46953000  0.91569596     0.16400
O332        O  0.43151895  0.42628754  0.92160164    -0.60500
H333        H  0.39054714  0.40008370  0.83417502     0.16400
O334        O  0.37641782  0.44324142  0.82854659    -0.60600
H335        H  0.39318713  0.45274885  0.81467677     0.43400
H336        H  0.45403306  0.44047204  0.91888125     0.43300
C337        C  0.42610069  0.18058271  0.89040432    -0.05700
C338        C  0.41726579  0.19081788  0.86693090    -0.33100
C339        C  0.41769889  0.21909998  0.86729632     0.36100
C340        C  0.42666593  0.23740609  0.89156936    -0.06100
C341        C  0.43870920  0.22879486  0.91384943    -0.33000
C342        C  0.43899165  0.20092858  0.91323427     0.36000
H343        H  0.40779034  0.17591339  0.84894712     0.16400
O344        O  0.40610178  0.22684873  0.84491187    -0.60500
H345        H  0.44659456  0.24302391  0.93236398     0.16400
O346        O  0.45021784  0.19304153  0.93580075    -0.60600
H347        H  0.47183945  0.19902801  0.93101114     0.43400
H348        H  0.42419411  0.23894055  0.83279121     0.43300
C349        C  0.01801813  0.37995859  0.02408727    -0.05700
C350        C  0.50659113  0.39855774  0.01345062    -0.33100
C351        C  0.48623560  0.38857460  0.99067321     0.36100
C352        C  0.47678153  0.35945940  0.97840569    -0.06100
C353        C  0.98779331  0.34077009  0.98946742    -0.33000
C354        C  0.00829521  0.35078205  0.01183057     0.36000
H355        H  0.51363699  0.42097607  0.02266278     0.16400
O356        O  0.47551086  0.40725850  0.98083969    -0.60500
H357        H  0.98076287  0.31822029  0.98054023     0.16400
O358        O  0.01767031  0.33120055  0.02222605    -0.60600
H359        H  0.03447399  0.33343007  0.00983152     0.43400
H360        H  0.45630831  0.40132782  0.99136426     0.43300
C361        C  0.46168944  0.39850524  0.12771079    -0.05700
C362        C  0.45306646  0.40711905  0.10311603    -0.33100
C363        C  0.42879228  0.41381918  0.10284711     0.36100
C364        C  0.41299475  0.41224771  0.12755613    -0.06100
C365        C  0.41948152  0.40010171  0.15121383    -0.33000
C366        C  0.44344456  0.39324715  0.15139129     0.36000
H367        H  0.46653554  0.41080930  0.08454679     0.16400
O368        O  0.42223910  0.42382959  0.07878557    -0.60500
H369        H  0.40713537  0.39748341  0.17029631     0.16400
O370        O  0.45000844  0.38310774  0.17539833    -0.60600
H371        H  0.43905169  0.36022166  0.17361909     0.43400
H372        H  0.40641438  0.40473983  0.06925711     0.43300
C373        C  0.18403228  0.42668835  0.10792971    -0.05700
C374        C  0.19536247  0.42035246  0.13222228    -0.33100
C375        C  0.22358717  0.42045544  0.13233546     0.36100
C376        C  0.24105101  0.42698490  0.10785577    -0.06100
C377        C  0.23118073  0.43619959  0.08442279    -0.33000
C378        C  0.20325075  0.43642164  0.08435204     0.36000
H379        H  0.18143342  0.41329992  0.15075880     0.16400
O380        O  0.23271935  0.41210879  0.15598442    -0.60500
H381        H  0.24456128  0.44204053  0.06556784     0.16400
O382        O  0.19427245  0.44453693  0.06048601    -0.60600
H383        H  0.20241891  0.46713723  0.06222019     0.43400
H384        H  0.22315013  0.38926839  0.15480075     0.43300
C385        C  0.25564716  0.17949686  0.89380389    -0.05700
C386        C  0.26533418  0.19867697  0.91728122    -0.33100
C387        C  0.29363253  0.22643169  0.91758217     0.36100
C388        C  0.31331244  0.23499679  0.89437344    -0.06100
C389        C  0.30233638  0.21711396  0.87011074    -0.33000
C390        C  0.27368134  0.18967887  0.86962597     0.36000
H391        H  0.25141142  0.19159092  0.93583575     0.16400
O392        O  0.30234148  0.24424505  0.94114674    -0.60500
H393        H  0.31676668  0.22332040  0.85190262     0.16400
O394        O  0.26508122  0.17156696  0.84624406    -0.60600
H395        H  0.25348862  0.17891753  0.83485471     0.43400
H396        H  0.29546755  0.25957499  0.93824936     0.43300
C397        C  0.03172336  0.43377026  0.87293710    -0.05700
C398        C  0.05037431  0.44485153  0.84940659    -0.33100
C399        C  0.07417720  0.47566795  0.84777201     0.36100
C400        C  0.07986929  0.99635490  0.87003058    -0.06100
C401        C  0.06276114  0.48453815  0.89447683    -0.33000
C402        C  0.03893165  0.45353689  0.89607367     0.36000
H403        H  0.04550516  0.42989530  0.83154548     0.16400
O404        O  0.09112139  0.98539210  0.82392269    -0.60500
H405        H  0.06664795  0.49972656  0.91195299     0.16400
O406        O  0.02097110  0.44377735  0.91933128    -0.60600
H407        H  0.03087823  0.43512230  0.93137408     0.43400
H408        H  0.07797814  0.98889576  0.81065965     0.43300
C409        C  0.31139103  0.06953332  0.89235033    -0.05700
C410        C  0.29980305  0.07417944  0.86740545    -0.33100
C411        C  0.27149857  0.07396302  0.86657730     0.36100
C412        C  0.25432644  0.06926668  0.89107484    -0.06100
C413        C  0.26457459  0.06154388  0.91528472    -0.33000
C414        C  0.29261577  0.06153859  0.91603600     0.36000
H415        H  0.31357397  0.07989588  0.84880177     0.16400
O416        O  0.26213384  0.08056176  0.84213203    -0.60500
H417        H  0.25157803  0.05688287  0.93426832     0.16400
O418        O  0.30212637  0.05512862  0.94050524    -0.60600
H419        H  0.29269327  0.03228333  0.94071041     0.43400
H420        H  0.24962549  0.06025885  0.83272929     0.43300
C421        C  0.49601809  0.08067961  0.87015114    -0.05700
C422        C  0.01496933  0.09418588  0.84697279    -0.33100
C423        C  0.04594717  0.10144814  0.84700992     0.36100
C424        C  0.05875327  0.09536442  0.87047560    -0.06100
C425        C  0.04102781  0.08501689  0.89461184    -0.33000
C426        C  0.00983756  0.07749101  0.89458034     0.36000
H427        H  0.00541510  0.09773522  0.82812810     0.16400
O428        O  0.06304918  0.11293946  0.82342465    -0.60500
H429        H  0.05060280  0.08047465  0.91294999     0.16400
O430        O  0.49284270  0.06568386  0.91816239    -0.60600
H431        H  0.48581336  0.04323249  0.91768210     0.43400
H432        H  0.07449913  0.13574461  0.82599206     0.43300
C433        C  0.00051147  0.08401208  0.12655053    -0.05700
C434        C  0.48222536  0.07714797  0.15037985    -0.33100
C435        C  0.45159189  0.05303599  0.15042581     0.36100
C436        C  0.43843948  0.03518621  0.12637493    -0.06100
C437        C  0.45532459  0.04402264  0.10171843    -0.33000
C438        C  0.48620098  0.06833168  0.10162191     0.36000
H439        H  0.49211163  0.08933441  0.16963439     0.16400
O440        O  0.43526759  0.04588736  0.17463934    -0.60500
H441        H  0.44537414  0.03069237  0.08296216     0.16400
O442        O  0.00264826  0.07487769  0.07753725    -0.60600
H443        H  0.00001436  0.09129227  0.06863012     0.43400
H444        H  0.42220735  0.05567027  0.17321569     0.43300
C445        C  0.24168404  0.31564217  0.10695083    -0.05700
C446        C  0.23258400  0.29760437  0.08264490    -0.33100
C447        C  0.20511202  0.26910291  0.08146350     0.36100
C448        C  0.18624245  0.25769193  0.10501113    -0.06100
C449        C  0.19687385  0.27411904  0.13007788    -0.33000
C450        C  0.22428848  0.30288879  0.13120037     0.36000
H451        H  0.24596548  0.30625409  0.06390426     0.16400
O452        O  0.19656438  0.25292917  0.05695529    -0.60500
H453        H  0.18280909  0.26576709  0.14848289     0.16400
O454        O  0.23229024  0.31928674  0.15555879    -0.60600
H455        H  0.24619961  0.31340639  0.16513390     0.43400
H456        H  0.18864544  0.26374516  0.04520426     0.43300
C457        C  0.07526612  0.31475379  0.10755530    -0.05700
C458        C  0.06506534  0.29531359  0.08427175    -0.33100
C459        C  0.06486675  0.26721875  0.08409449     0.36100
C460        C  0.07577201  0.25828109  0.10734048    -0.06100
C461        C  0.08370757  0.27663181  0.13140878    -0.33000
C462        C  0.08354990  0.30468181  0.13163987     0.36000
H463        H  0.05811622  0.30239661  0.06571695     0.16400
O464        O  0.05530306  0.24944619  0.06050698    -0.60500
H465        H  0.09192537  0.27027528  0.14959497     0.16400
O466        O  0.09352335  0.32295923  0.15492033    -0.60600
H467        H  0.11617052  0.33664740  0.15248318     0.43400
H468        H  0.03271038  0.23539549  0.06284564     0.43300
C469        C  0.09754770  0.06041929  0.12208729    -0.05700
C470        C  0.10943187  0.05072918  0.14365560    -0.33100
C471        C  0.10265374  0.01999048  0.14525075     0.36100
C472        C  0.08318976  0.49814658  0.12521979    -0.06100
C473        C  0.07371820  0.00862515  0.10223418    -0.33000
C474        C  0.08089163  0.03957988  0.10052624     0.36000
H475        H  0.12273002  0.06672115  0.16014671     0.16400
O476        O  0.11457194  0.51142967  0.16686984    -0.60500
H477        H  0.05898267  0.99243016  0.08644051     0.16400
O478        O  0.06863332  0.04830488  0.07932982    -0.60600
H479        H  0.08387720  0.05443190  0.06415689     0.43400
H480        H  0.10173482  0.50988977  0.18306140     0.43300
C481        C  0.11254367  0.13409017  0.02034011    -0.05700
C482        C  0.14218844  0.15251197  0.00923209    -0.33100
C483        C  0.15229504  0.14225422  0.98687082     0.36100
C484        C  0.13258879  0.11297845  0.97475350    -0.06100
C485        C  0.10256577  0.09468903  0.98539991    -0.33000
C486        C  0.09257762  0.10493483  0.00819261     0.36000
H487        H  0.15798789  0.17497476  0.01821074     0.16400
O488        O  0.18160419  0.16126776  0.97700225    -0.60500
H489        H  0.08700649  0.07222060  0.97633359     0.16400
O490        O  0.06332074  0.08635411  0.01830099    -0.60600
H491        H  0.05014602  0.09324099  0.00883844     0.43400
H492        H  0.17910084  0.17377774  0.96243490     0.43300
C493        C  0.40386573  0.10493314  0.72125813    -0.05700
C494        C  0.42456236  0.12801259  0.73951755    -0.33100
C495        C  0.42040571  0.12407106  0.76805894     0.36100
C496        C  0.39548037  0.09667233  0.77840653    -0.06100
C497        C  0.37286014  0.07537571  0.76013645    -0.33000
C498        C  0.37685529  0.07946098  0.73157874     0.36000
H499        H  0.44569740  0.14744298  0.73174068     0.16400
O500        O  0.44314128  0.14483602  0.78549659    -0.60500
H501        H  0.35389370  0.05392142  0.76793072     0.16400
O502        O  0.35677564  0.05620242  0.71416993    -0.60600
H503        H  0.34375486  0.06393703  0.70581148     0.43400
H504        H  0.43498258  0.15791743  0.79290878     0.43300
C505        C  0.48174076  0.11585627  0.52260857    -0.05700
C506        C  0.49103643  0.14460944  0.51028937    -0.33100
C507        C  0.01014944  0.15425088  0.48719918     0.36100
C508        C  0.02053293  0.13504669  0.47560222    -0.06100
C509        C  0.01078984  0.10592165  0.48746767    -0.33000
C510        C  0.49188567  0.09645257  0.51105613     0.36000
H511        H  0.48366898  0.16003980  0.51874752     0.16400
O512        O  0.01830198  0.18254588  0.47603099    -0.60500
H513        H  0.01829588  0.09071820  0.47876358     0.16400
O514        O  0.48272965  0.06789541  0.52207551    -0.60600
H515        H  0.99984179  0.07107253  0.53463128     0.43400
H516        H  0.50264219  0.17816358  0.46136946     0.43300
C517        C  0.10498373  0.19961353  0.21995489    -0.05700
C518        C  0.12674463  0.19652325  0.23607119    -0.33100
C519        C  0.12462485  0.19534530  0.26491895     0.36100
C520        C  0.10060700  0.19744909  0.27804602    -0.06100
C521        C  0.08097303  0.20401759  0.26216038    -0.33000
C522        C  0.08291206  0.20488242  0.23318776     0.36000
H523        H  0.14339216  0.19171154  0.22618009     0.16400
O524        O  0.14377646  0.18840542  0.27985175    -0.60500
H525        H  0.06207237  0.20521433  0.27196942     0.16400
O526        O  0.06126157  0.20780247  0.21795005    -0.60600
H527        H  0.04344590  0.18646240  0.21590507     0.43400
H528        H  0.16042812  0.20858306  0.28708158     0.43300
C529        C  0.20338069  0.10099882  0.72097347    -0.05700
C530        C  0.20246506  0.12525863  0.73483335    -0.33100
C531        C  0.20079863  0.12538428  0.76369577     0.36100
C532        C  0.19991664  0.10096940  0.77888310    -0.06100
C533        C  0.20432097  0.07863780  0.76523793    -0.33000
C534        C  0.20636969  0.07873229  0.73637269     0.36000
H535        H  0.19970677  0.14226055  0.72321349     0.16400
O536        O  0.19678098  0.14763912  0.77668787    -0.60500
H537        H  0.20318021  0.05947877  0.77669283     0.16400
O538        O  0.20676399  0.05448158  0.72329237    -0.60600
H539        H  0.22888874  0.06214979  0.71908153     0.43400
H540        H  0.17430054  0.14034619  0.77511893     0.43300
C541        C  0.26243264  0.07518710  0.60754697    -0.05700
C542        C  0.27951924  0.08223528  0.63230862    -0.33100
C543        C  0.30835525  0.08360937  0.63316503     0.36100
C544        C  0.32028695  0.07740124  0.60904313    -0.06100
C545        C  0.30178521  0.06772612  0.58504867    -0.33000
C546        C  0.27322062  0.06656315  0.58416694     0.36000
H547        H  0.27159013  0.08881693  0.65056601     0.16400
O548        O  0.32536366  0.09286760  0.65719294    -0.60500
H549        H  0.31004434  0.06223178  0.56638227     0.16400
O550        O  0.25672883  0.05834919  0.55985050    -0.60600
H551        H  0.24174548  0.03588632  0.56150841     0.43400
H552        H  0.33738287  0.11580759  0.65638793     0.43300
C553        C  0.08762452  0.08518827  0.62543534    -0.05700
C554        C  0.08493112  0.10251376  0.64715951    -0.33100
C555        C  0.06193604  0.11067753  0.64676423     0.36100
C556        C  0.04113033  0.10176133  0.62436219    -0.06100
C557        C  0.04571978  0.08745209  0.60128903    -0.33000
C558        C  0.06869266  0.07897493  0.60171972     0.36000
H559        H  0.09964071  0.10842269  0.66531139     0.16400
O560        O  0.05868346  0.12565237  0.66923731    -0.60500
H561        H  0.02988592  0.08054166  0.58386288     0.16400
O562        O  0.07109638  0.06307531  0.57956606    -0.60600
H563        H  0.05578757  0.04099950  0.58300223     0.43400
H564        H  0.07134178  0.14801924  0.66499380     0.43300
C565        C  0.12057115  0.47781631  0.47780341    -0.05700
C566        C  0.10098965  0.48788578  0.48876057    -0.33100
C567        C  0.11010635  0.00768740  0.51185516     0.36100
C568        C  0.13956214  0.01841166  0.52391112    -0.06100
C569        C  0.15927570  0.00870261  0.51262359    -0.33000
C570        C  0.15004321  0.48859970  0.48992834     0.36000
H571        H  0.07838395  0.48010986  0.47959843     0.16400
O572        O  0.09053321  0.01729904  0.52180046    -0.60500
H573        H  0.18201301  0.01657084  0.52155467     0.16400
O574        O  0.17029747  0.48004141  0.47957049    -0.60600
H575        H  0.18194663  0.49533767  0.46496303     0.43400
H576        H  0.07587314  0.00035210  0.53394882     0.43300
C577        C  0.10079307  0.03490677  0.37528466    -0.05700
C578        C  0.11047296  0.05528823  0.35292244    -0.33100
C579        C  0.10348289  0.07914597  0.35161555     0.36100
C580        C  0.08596360  0.08266408  0.37278715    -0.06100
C581        C  0.07877000  0.06392469  0.39637946    -0.33000
C582        C  0.08625572  0.04031495  0.39780231     0.36000
H583        H  0.12215170  0.05171052  0.33565381     0.16400
O584        O  0.11319478  0.09831872  0.32913462    -0.60500
H585        H  0.06560405  0.06623272  0.41305970     0.16400
O586        O  0.07632441  0.52068255  0.41994160    -0.60600
H587        H  0.09379837  0.52983002  0.43333894     0.43400
H588        H  0.09878018  0.08612160  0.31391851     0.43300
C589        C  0.07765939  0.31468863  0.39054125    -0.05700
C590        C  0.06440705  0.29459581  0.41305633    -0.33100
C591        C  0.06293671  0.26586539  0.41366559     0.36100
C592        C  0.07455546  0.25652100  0.39144107    -0.06100
C593        C  0.08551589  0.27535049  0.36799078    -0.33000
C594        C  0.08748976  0.30437930  0.36750799     0.36000
H595        H  0.05633423  0.30169947  0.43088012     0.16400
O596        O  0.05139888  0.24771338  0.43665183    -0.60500
H597        H  0.09477906  0.26861082  0.35078342     0.16400
O598        O  0.10092975  0.32316723  0.34517454    -0.60600
H599        H  0.12350500  0.33446348  0.34922420     0.43400
H600        H  0.02901736  0.23391119  0.43270665     0.43300
C601        C  0.10327420  0.40206191  0.27917104    -0.05700
C602        C  0.08189439  0.37486161  0.26531833    -0.33100
C603        C  0.08086424  0.37371377  0.23635171     0.36100
C604        C  0.10101278  0.40020132  0.22110368    -0.06100
C605        C  0.12415024  0.42631869  0.23499110    -0.33000
C606        C  0.12549930  0.42728681  0.26386028     0.36000
H607        H  0.06426478  0.35555629  0.27688386     0.16400
O608        O  0.05745726  0.34819860  0.22331951    -0.60500
H609        H  0.13932429  0.44705275  0.22353088     0.16400
O610        O  0.14604752  0.45442482  0.27690845    -0.60600
H611        H  0.16444199  0.45236146  0.28101036     0.43400
H612        H  0.06717736  0.33622183  0.21666421     0.43300
C613        C  0.39526999  0.29870965  0.72288761    -0.05700
C614        C  0.41829863  0.29548486  0.73663063    -0.33100
C615        C  0.41822247  0.29348316  0.76549822     0.36100
C616        C  0.39538490  0.29556409  0.78086291    -0.06100
C617        C  0.37078028  0.29580788  0.76695297    -0.33000
C618        C  0.37039915  0.29695071  0.73805441     0.36000
H619        H  0.43778487  0.29725969  0.72520004     0.16400
O620        O  0.44285062  0.29386451  0.77861438    -0.60500
H621        H  0.35338337  0.29798264  0.77855079     0.16400
O622        O  0.34783898  0.30046179  0.72509118    -0.60600
H623        H  0.33036450  0.27910062  0.72214490     0.43400
H624        H  0.43589424  0.27183980  0.78248732     0.43300
C625        C  0.31253786  0.24301684  0.60804308    -0.05700
C626        C  0.29508525  0.23169024  0.58364794    -0.33100
C627        C  0.26764598  0.20315153  0.58305833     0.36100
C628        C  0.25743711  0.18471765  0.60709420    -0.06100
C629        C  0.27312541  0.19761124  0.63214894    -0.33000
C630        C  0.30027612  0.22664940  0.63281447     0.36000
H631        H  0.30352032  0.24434359  0.56452529     0.16400
O632        O  0.25218585  0.19282905  0.55835145    -0.60500
H633        H  0.26547268  0.18443624  0.65106688     0.16400
O634        O  0.31607613  0.23725986  0.65732944    -0.60600
H635        H  0.30825860  0.25027709  0.66557642     0.43400
H636        H  0.23603470  0.19891138  0.55865099     0.43300
C637        C  0.06372766  0.46367214  0.62825081    -0.05700
C638        C  0.04492212  0.45690044  0.60465688    -0.33100
C639        C  0.01372640  0.43325382  0.60505234     0.36100
C640        C  0.50091830  0.41594244  0.62939683    -0.06100
C641        C  0.02079669  0.42102035  0.65197714    -0.33000
C642        C  0.05178079  0.44458875  0.65154424     0.36000
H643        H  0.05374267  0.47140726  0.58655990     0.16400
O644        O  0.99558054  0.42902202  0.58226082    -0.60500
H645        H  0.51200077  0.40771827  0.67072039     0.16400
O646        O  0.06977595  0.94992872  0.67467075    -0.60600
H647        H  0.07980817  0.93722857  0.67202056     0.43400
H648        H  0.99683256  0.41303370  0.57098604     0.43300
C649        C  0.42344492  0.24207690  0.61100418    -0.05700
C650        C  0.43770817  0.23608188  0.58864030    -0.33100
C651        C  0.44043732  0.20950313  0.58788410     0.36100
C652        C  0.42871105  0.18809197  0.60968018    -0.06100
C653        C  0.41702182  0.19539358  0.63315208    -0.33000
C654        C  0.41408742  0.22193299  0.63387441     0.36000
H655        H  0.44576290  0.25145441  0.57106270     0.16400
O656        O  0.45325669  0.20397228  0.56506886    -0.60500
H657        H  0.40791630  0.17931250  0.65019328     0.16400
O658        O  0.40032086  0.22680618  0.65634597    -0.60600
H659        H  0.37776418  0.21520934  0.65224003     0.43400
H660        H  0.47488390  0.21048470  0.57052871     0.43300
C661        C  0.40615911  0.44226643  0.63150757    -0.05700
C662        C  0.40431816  0.45616371  0.65613543    -0.33100
C663        C  0.41143160  0.48705302  0.65694842     0.36100
C664        C  0.42078103  0.00516887  0.63267690    -0.06100
C665        C  0.42025770  0.49048606  0.60755286    -0.33000
C666        C  0.41281178  0.45927961  0.60680958     0.36000
H667        H  0.39860801  0.44337054  0.67530172     0.16400
O668        O  0.41018767  0.99944577  0.68195412    -0.60500
H669        H  0.42698784  0.50355707  0.58854673     0.16400
O670        O  0.41470771  0.44658618  0.58222268    -0.60600
H671        H  0.39352033  0.43674898  0.57419575     0.43400
H672        H  0.43004362  0.00504409  0.69137984     0.43300
C673        C  0.29924329  0.39301480  0.27853092    -0.05700
C674        C  0.29933696  0.37028099  0.26139425    -0.33100
C675        C  0.29923106  0.37282837  0.23259483     0.36100
C676        C  0.29867749  0.39817711  0.22064006    -0.06100
C677        C  0.29505721  0.41897099  0.23774844    -0.33000
C678        C  0.29527587  0.41647521  0.26660963     0.36000
H679        H  0.30285364  0.35236129  0.27030177     0.16400
O680        O  0.30299023  0.35231471  0.21637789    -0.60500
H681        H  0.29539880  0.43903776  0.22884018     0.16400
O682        O  0.29580707  0.43935203  0.28283098    -0.60600
H683        H  0.27371687  0.43268793  0.28615912     0.43400
H684        H  0.32569366  0.36059938  0.21564472     0.43300
C685        C  0.36468048  0.38432119  0.47912160    -0.05700
C686        C  0.34299485  0.36009927  0.49569456    -0.33100
C687        C  0.35227860  0.35049153  0.51901735     0.36100
C688        C  0.38378951  0.36518443  0.52656013    -0.06100
C689        C  0.40559456  0.38997576  0.51068104    -0.33000
C690        C  0.39631302  0.39942314  0.48693142     0.36000
H691        H  0.31855921  0.34802245  0.49039786     0.16400
O692        O  0.33022489  0.32655435  0.53433447    -0.60500
H693        H  0.42994269  0.40145420  0.51625963     0.16400
O694        O  0.41840858  0.42294065  0.47133233    -0.60600
H695        H  0.42039094  0.44219652  0.47933250     0.43400
H696        H  0.32489339  0.33658850  0.54940015     0.43300
C697        C  0.46407280  0.05744909  0.37289933    -0.05700
C698        C  0.44501478  0.04559707  0.34948781    -0.33100
C699        C  0.42038238  0.01514916  0.34875123     0.36100
C700        C  0.41486905  0.49541098  0.37151543    -0.06100
C701        C  0.43243082  0.00817170  0.39584334    -0.40200
C702        C  0.45675425  0.03902610  0.39670086     0.36000
H703        H  0.45007210  0.05967616  0.33115196     0.16400
O704        O  0.40316803  0.00453344  0.32492401    -0.60500
H705        H  0.42858759  0.49376518  0.41374541     0.16400
O706        O  0.97511833  0.04982938  0.41987376    -0.60600
H707        H  0.96512714  0.05855234  0.43174846     0.43400
H708        H  0.38532574  0.00786355  0.32767805     0.43300
C709        C  0.24088393  0.31198267  0.39241651    -0.05700
C710        C  0.22210084  0.30361748  0.36864738    -0.33100
C711        C  0.19333105  0.27620474  0.36773140     0.36100
C712        C  0.18316146  0.25613729  0.39065472    -0.06100
C713        C  0.20314749  0.26353851  0.41358753    -0.33000
C714        C  0.23164432  0.29113994  0.41462268     0.36000
H715        H  0.22869063  0.31941925  0.35140891     0.16400
O716        O  0.17465695  0.27035988  0.34499403    -0.60500
H717        H  0.19616052  0.24848212  0.43138189     0.16400
O718        O  0.24968184  0.29810685  0.43795227    -0.60600
H719        H  0.26269110  0.28846725  0.43495986     0.43400
H720        H  0.16281831  0.28112162  0.34872539     0.43300
C721        C  0.00277601  0.41641602  0.37644346    -0.05700
C722        C  0.48171534  0.39618476  0.35652304    -0.33100
C723        C  0.45067923  0.38850729  0.35690388     0.36100
C724        C  0.44007953  0.40074269  0.37756018    -0.06100
C725        C  0.46030905  0.41894811  0.39876771    -0.33000
C726        C  0.49162938  0.42711281  0.39820741     0.36000
H727        H  0.48962268  0.38742701  0.33977513     0.16400
O728        O  0.43125322  0.37053840  0.33601032    -0.60500
H729        H  0.45242329  0.42888103  0.41453220     0.16400
O730        O  0.01143907  0.44733503  0.41781701    -0.60600
H731        H  0.01778602  0.46826269  0.41063391     0.43400
H732        H  0.42090254  0.34908121  0.34315927     0.43300
C733        C  0.24326309  0.42278213  0.39035091    -0.05700
C734        C  0.23643086  0.43594065  0.41309575    -0.33100
C735        C  0.20885261  0.43677488  0.41404027     0.36100
C736        C  0.18763592  0.42459140  0.39193131    -0.06100
C737        C  0.19557285  0.41392793  0.36817577    -0.33000
C738        C  0.22296517  0.41260431  0.36735169     0.36000
H739        H  0.25180066  0.44426313  0.43087084     0.16400
O740        O  0.20213585  0.44811459  0.43726162    -0.60500
H741        H  0.17938030  0.40431820  0.35103217     0.16400
O742        O  0.22841402  0.39925315  0.34482010    -0.60600
H743        H  0.21797555  0.37679402  0.34893219     0.43400
H744        H  0.21078898  0.47051956  0.43376325     0.43300
O745        O  0.34255096  0.90980937  0.30691797    -0.81100
O746        O  0.37198887  0.90982953  0.43552237    -0.65800
O747        O  0.34363837  0.88972508  0.36066216    -1.12400
C748        C  0.26876026  0.91579817  0.39278484     1.05700
O749        O  0.32422472  0.87991680  0.45003872    -0.79000
O750        O  0.27271381  0.85685455  0.41872718    -0.66600
Ni751      Ni  0.37276497  0.91008476  0.33180544     1.34900
C752        C  0.26733853  0.84395044  0.39513717     0.84500
O753        O  0.39057569  0.88989129  0.39301509    -0.79600
O754        O  0.40688251  0.91128141  0.35164957    -0.89900
C755        C  0.35333020  0.89244329  0.45382462     0.84100
O756        O  0.38295188  0.95003528  0.34520159    -0.68100
O757        O  0.27711054  0.91332011  0.41716136    -0.87300
C758        C  0.39398299  0.96129692  0.36889422     0.84900
C759        C  0.41047238  0.89995529  0.37388373     1.06500
H760        H  0.33801808  0.93432560  0.40224940     0.38300
O761        O  0.32825064  0.91203573  0.40121544    -1.10000
O762        O  0.28228757  0.85778819  0.37359558    -0.66700
Ni763      Ni  0.31154133  0.90020834  0.36495177     1.26300
O764        O  0.38937296  0.94411851  0.38990630    -0.66900
O765        O  0.28008726  0.91110889  0.37086941    -0.79200
C766        C  0.31325208  0.89753821  0.30620599     0.84300
O767        O  0.29662695  0.88921524  0.32773049    -0.66400
Ni768      Ni  0.30169251  0.89718436  0.43226677     1.27400
Ni769      Ni  0.35941469  0.90096871  0.39766957     1.26100
H770        H  0.33467324  0.86762779  0.35825564     0.38800
O771        O  0.42029567  0.84136848  0.69350651    -0.81100
O772        O  0.41226349  0.87254575  0.56823296    -0.65800
O773        O  0.39463314  0.84512418  0.64292918    -1.12400
C774        C  0.41591572  0.76736863  0.60876792     1.05700
O775        O  0.38112369  0.82458618  0.55356290    -0.79000
O776        O  0.35894101  0.77245382  0.58349914    -0.66600
Ni777      Ni  0.41725596  0.87257887  0.67242185     1.34900
C778        C  0.34502729  0.76876616  0.60629462     0.84500
O779        O  0.39628229  0.89363759  0.61245573    -0.79600
O780        O  0.41554330  0.90666375  0.65541617    -0.89900
C781        C  0.39356571  0.85371484  0.55038778     0.84100
O782        O  0.45701692  0.88529258  0.65710137    -0.68100
O783        O  0.41587365  0.77766390  0.58463715    -0.87300
C784        C  0.46688945  0.89531161  0.63302806     0.84900
C785        C  0.40544534  0.91213979  0.63309239     1.06500
H786        H  0.43643289  0.83708907  0.60129322     0.38300
O787        O  0.41419595  0.82816793  0.60174965    -1.10000
O788        O  0.35825657  0.78501574  0.62762774    -0.66700
Ni789      Ni  0.40123328  0.81081583  0.63737718     1.26300
O790        O  0.44862277  0.88956981  0.61257016    -0.66900
O791        O  0.40884236  0.77702582  0.63057396    -0.79200
C792        C  0.40157230  0.81239730  0.69518156     0.84300
O793        O  0.38862498  0.79581763  0.67401529    -0.66400
Ni794      Ni  0.39901227  0.80201081  0.57024071     1.27400
Ni795      Ni  0.40496762  0.86074089  0.60617699     1.26100
H796        H  0.37286347  0.83774577  0.64588343     0.38800
O797        O  0.07869830  0.91799476  0.31096341    -0.81100
O798        O  0.09184539  0.95723494  0.43612295    -0.65800
O799        O  0.10716506  0.94695686  0.36082244    -1.12400
C800        C  0.08451930  0.84723128  0.39306734     1.05700
O801        O  0.12194660  0.93909232  0.45001187    -0.79000
O802        O  0.14273639  0.90909800  0.41819023    -0.66600
Ni803      Ni  0.08543026  0.95380835  0.33190443     1.34900
C804        C  0.15565348  0.91844279  0.39493575     0.84500
O805        O  0.10816524  0.99450113  0.39274534    -0.79600
O806        O  0.09061299  0.99095255  0.34934782    -0.89900
C807        C  0.11047515  0.95660923  0.45363373     0.84100
O808        O  0.04545161  0.92951579  0.34756548    -0.68100
O809        O  0.08566437  0.85774451  0.41743495    -0.87300
C810        C  0.03633719  0.92884089  0.37212164     0.84900
C811        C  0.10047290  0.50528679  0.37233821     1.06500
H812        H  0.06528422  0.89765011  0.40268631     0.38300
O813        O  0.08756770  0.91032619  0.40168327    -1.10000
O814        O  0.14181933  0.92087302  0.37387244    -0.66700
Ni815      Ni  0.09893233  0.90539146  0.36534329     1.26300
O816        O  0.05485738  0.93934723  0.39262835    -0.66900
O817        O  0.09024926  0.86361253  0.37129041    -0.79200
C818        C  0.09712834  0.90761675  0.30766528     0.84300
O819        O  0.11006601  0.90267628  0.32804087    -0.66400
Ni820      Ni  0.10314761  0.89881762  0.43247547     1.27400
Ni821      Ni  0.09817446  0.95254999  0.39801701     1.26100
H822        H  0.12906311  0.96060936  0.35774820     0.38800
O823        O  0.16109203  0.58073743  0.69086472    -0.81100
O824        O  0.13144553  0.53929178  0.56556199    -0.65800
O825        O  0.15930497  0.55168714  0.64062105    -1.12400
C826        C  0.23318066  0.65136672  0.60553708     1.05700
O827        O  0.17958026  0.55699573  0.55175584    -0.79000
O828        O  0.23150226  0.58970557  0.58198114    -0.66600
Ni829      Ni  0.13121364  0.54560623  0.66968939     1.34900
C830        C  0.23610012  0.58096615  0.60519088     0.84500
O831        O  0.11156260  0.50315686  0.60983933    -0.79600
O832        O  0.09809635  0.50891045  0.65260711    -0.89900
C833        C  0.15053475  0.53971665  0.54803041     0.84100
O834        O  0.11711644  0.57120810  0.65388648    -0.68100
O835        O  0.22347959  0.63958949  0.58156823    -0.87300
C836        C  0.10763435  0.57124234  0.62953921     0.84900
C837        C  0.09322634  0.99338255  0.63031488     1.06500
H838        H  0.16498210  0.59966477  0.59786472     0.38300
O839        O  0.17471775  0.58712360  0.59900716    -1.10000
O840        O  0.22019144  0.57852987  0.62647414    -0.66700
Ni841      Ni  0.19217179  0.59341566  0.63499474     1.26300
O842        O  0.11358492  0.55872770  0.60925284    -0.66900
O843        O  0.22422133  0.63556119  0.62782922    -0.79200
C844        C  0.19029814  0.59286241  0.69295248     0.84300
O845        O  0.20736290  0.59762925  0.67206739    -0.66400
Ni846      Ni  0.20070222  0.59799596  0.56777380     1.27400
Ni847      Ni  0.14339581  0.54503304  0.60362722     1.26100
H848        H  0.16782935  0.53831187  0.64387221     0.38800
O849        O  0.07655284  0.65442103  0.30692682    -0.81100
O850        O  0.04108514  0.62652584  0.43395418    -0.65800
O851        O  0.05072174  0.65305291  0.35881436    -1.12400
C852        C  0.15075908  0.72997798  0.39262139     1.05700
O853        O  0.05889810  0.67472483  0.44791700    -0.79000
O854        O  0.08924845  0.72609971  0.41730362    -0.66600
Ni855      Ni  0.04386249  0.62431890  0.32986985     1.34900
C856        C  0.07994924  0.73011443  0.39409097     0.84500
O857        O  0.00358320  0.60614955  0.39028457    -0.79600
O858        O  0.00895667  0.59078226  0.34821767    -0.89900
C859        C  0.04160254  0.64575940  0.45149769     0.84100
O860        O  0.07187144  0.61267105  0.34491874    -0.68100
O861        O  0.14037075  0.72010178  0.41678339    -0.87300
C862        C  0.07212418  0.60285645  0.36901082     0.84900
C863        C  0.49373413  0.58677525  0.37041797     1.06500
H864        H  0.10053625  0.66029665  0.40083533     0.38300
O865        O  0.08770473  0.66973906  0.39995878    -1.10000
O866        O  0.07705931  0.71385392  0.37281782    -0.66700
Ni867      Ni  0.09244819  0.68641847  0.36392998     1.26300
O868        O  0.05939872  0.60826099  0.38949408    -0.66900
O869        O  0.13430374  0.71950013  0.37063058    -0.79200
C870        C  0.09038053  0.68381259  0.30563165     0.84300
O871        O  0.09557887  0.70084849  0.32681191    -0.66400
Ni872      Ni  0.09924002  0.69638322  0.43115988     1.27400
Ni873      Ni  0.04557249  0.63798273  0.39586795     1.26100
H874        H  0.03695460  0.66118410  0.35582956     0.38800
O875        O  0.43502501  0.59318996  0.69424275    -0.81100
O876        O  0.46206590  0.58943005  0.56552362    -0.65800
O877        O  0.45394738  0.61085540  0.63989088    -1.12400
C878        C  0.35298446  0.58459586  0.60718089     1.05700
O879        O  0.44524272  0.62019219  0.55060193    -0.79000
O880        O  0.41888508  0.64486725  0.58224348    -0.66600
Ni881      Ni  0.46445036  0.59245361  0.66943616     1.34900
C882        C  0.42379243  0.65636222  0.60638880     0.84500
O883        O  0.50105123  0.61044019  0.60790516    -0.79600
O884        O  0.49719486  0.59104305  0.64992182    -0.89900
C885        C  0.46146361  0.60724364  0.54721517     0.84100
O886        O  0.43501793  0.55173226  0.65738826    -0.68100
O887        O  0.36497485  0.58976469  0.58312740    -0.87300
C888        C  0.43390250  0.53949306  0.63399721     0.84900
C889        C  0.01172629  0.60173139  0.62750775     1.06500
H890        H  0.40381483  0.56572083  0.59742932     0.38300
O891        O  0.41632712  0.58797108  0.59909036    -1.10000
O892        O  0.42242018  0.64115946  0.62783345    -0.66700
Ni893      Ni  0.41075219  0.59884960  0.63541240     1.26300
O894        O  0.44522305  0.55581576  0.61221960    -0.66900
O895        O  0.36799381  0.58657808  0.62924765    -0.79200
C896        C  0.41546248  0.60239186  0.69420892     0.84300
O897        O  0.40565501  0.60865263  0.67243848    -0.66400
Ni898      Ni  0.40560219  0.60430749  0.56828185     1.27400
Ni899      Ni  0.45852993  0.59894343  0.60319218     1.26100
H900        H  0.46650976  0.63309246  0.64169525     0.38800
O901        O  0.08299471  0.65734212  0.18988836    -0.81100
O902        O  0.08553550  0.62774653  0.06268436    -0.65800
O903        O  0.10640418  0.65602754  0.13747006    -1.12400
C904        C  0.08269460  0.73257882  0.10535930     1.05700
O905        O  0.11668856  0.67522213  0.04818434    -0.79000
O906        O  0.14048560  0.72684426  0.07942363    -0.66600
Ni907      Ni  0.08649229  0.62773804  0.16691739     1.34900
C908        C  0.15387143  0.73180017  0.10273630     0.84500
O909        O  0.10469272  0.60812662  0.10496157    -0.79600
O910        O  0.08867518  0.59465964  0.14841665    -0.89900
C911        C  0.10367290  0.64607348  0.04461916     0.84100
O912        O  0.04573129  0.61377717  0.15332622    -0.68100
O913        O  0.08460239  0.72349833  0.08112786    -0.87300
C914        C  0.03461158  0.60463241  0.12924745     0.84900
C915        C  0.09751755  0.58978524  0.12523806     1.06500
H916        H  0.06254849  0.66298884  0.09639528     0.38300
O917        O  0.08482199  0.67221314  0.09718440    -1.10000
O918        O  0.14018344  0.71696777  0.12434347    -0.66700
Ni919      Ni  0.09750948  0.68915492  0.13337341     1.26300
O920        O  0.05167162  0.61110872  0.10797524    -0.66900
O921        O  0.08797807  0.72183585  0.12744543    -0.79200
C922        C  0.09910123  0.68662012  0.19174724     0.84300
O923        O  0.10964635  0.70379283  0.17065945    -0.66400
Ni924      Ni  0.10002180  0.69837671  0.06598141     1.27400
Ni925      Ni  0.09480838  0.64022786  0.10050579     1.26100
H926        H  0.12847744  0.66442850  0.13960075     0.38800
O927        O  0.15625560  0.57713794  0.80718153    -0.81100
O928        O  0.12461022  0.58390188  0.93305459    -0.65800
O929        O  0.15353614  0.60154901  0.85874956    -1.12400
C930        C  0.22835662  0.57598950  0.89294585     1.05700
O931        O  0.17255226  0.61242881  0.94870672    -0.79000
O932        O  0.22462824  0.63390420  0.91887475    -0.66600
Ni933      Ni  0.12590537  0.58109221  0.82876108     1.34900
C934        C  0.22930284  0.64757217  0.89586012     0.84500
O935        O  0.10624844  0.60250730  0.88908364    -0.79600
O936        O  0.09261095  0.58404449  0.84597235    -0.89900
C937        C  0.14356812  0.60192144  0.95120272     0.84100
O938        O  0.11151742  0.54073322  0.84313927    -0.68100
O939        O  0.21815008  0.57651541  0.91701866    -0.87300
C940        C  0.10104928  0.53035153  0.86697831     0.84900
C941        C  0.08798547  0.59462158  0.86838380     1.06500
H942        H  0.15825550  0.55738681  0.90024093     0.38300
O943        O  0.16820556  0.57970234  0.89984554    -1.10000
O944        O  0.21348404  0.63456800  0.87432884    -0.66700
Ni945      Ni  0.18610776  0.59224857  0.86427621     1.26300
O946        O  0.10687370  0.54813482  0.88790275    -0.66900
O947        O  0.21850134  0.58255184  0.87102273    -0.79200
C948        C  0.18558069  0.59406573  0.80630240     0.84300
O949        O  0.20199537  0.60487205  0.82790849    -0.66400
Ni950      Ni  0.19428655  0.59387098  0.93157350     1.27400
Ni951      Ni  0.13725295  0.59124550  0.89528987     1.26100
H952        H  0.16221000  0.62356640  0.85624785     0.38800
O953        O  0.07910426  0.92072446  0.19130433    -0.81100
O954        O  0.03879354  0.90887623  0.06574904    -0.65800
O955        O  0.05098789  0.89356498  0.14063178    -1.12400
C956        C  0.15110113  0.91912584  0.10623132     1.05700
O957        O  0.05769144  0.87967561  0.05117717    -0.79000
O958        O  0.08937160  0.85979777  0.08185544    -0.66600
Ni959      Ni  0.04432019  0.91547529  0.16957618     1.34900
C960        C  0.08088323  0.84670933  0.10515696     0.84500
O961        O  0.00215943  0.89127416  0.10967415    -0.79600
O962        O  0.00768200  0.91161040  0.15203118    -0.89900
C963        C  0.03965197  0.89060226  0.04797046     0.84100
O964        O  0.07019588  0.95515912  0.15395925    -0.68100
O965        O  0.13972102  0.91748248  0.08220502    -0.87300
C966        C  0.06987709  0.96440840  0.12967174     0.84900
C967        C  0.49203354  0.89992948  0.12991955     1.06500
H968        H  0.09915911  0.93635237  0.09825179     0.38300
O969        O  0.08686322  0.91405794  0.09922409    -1.10000
O970        O  0.07829416  0.86018967  0.12643838    -0.66700
Ni971      Ni  0.09290624  0.90288427  0.13524013     1.26300
O972        O  0.05713083  0.94572374  0.10948746    -0.66900
O973        O  0.13512993  0.91284486  0.12840095    -0.79200
C974        C  0.09190874  0.90425432  0.19322501     0.84300
O975        O  0.09683352  0.89197759  0.17229028    -0.66400
Ni976      Ni  0.09831680  0.89914761  0.06795477     1.27400
Ni977      Ni  0.04442833  0.90250278  0.10365760     1.26100
H978        H  0.03773884  0.87166021  0.14384057     0.38800
O979        O  0.41268152  0.83608568  0.81297237    -0.81100
O980        O  0.45466518  0.86596784  0.93677438    -0.65800
O981        O  0.44392719  0.83810579  0.86176255    -1.12400
C982        C  0.34611546  0.76013562  0.89616661     1.05700
O983        O  0.43996550  0.81840219  0.95044150    -0.79000
O984        O  0.41176328  0.76667846  0.91931344    -0.66600
Ni985      Ni  0.45017867  0.86517985  0.83187063     1.34900
C986        C  0.41928234  0.76244811  0.89535036     0.84500
O987        O  0.49083171  0.88759084  0.89253504    -0.79600
O988        O  0.48845006  0.89713654  0.84757006    -0.89900
C989        C  0.45551813  0.84756163  0.95430111     0.84100
O990        O  0.42801396  0.88329234  0.84724020    -0.68100
O991        O  0.35810480  0.76863373  0.92022699    -0.87300
C992        C  0.42479645  0.89030804  0.87172286     0.84900
C993        C  0.00214029  0.90401848  0.87100473     1.06500
H994        H  0.39474049  0.82935124  0.90504893     0.38300
O995        O  0.40832145  0.82082040  0.90333879    -1.10000
O996        O  0.41903099  0.77745271  0.87438824    -0.66700
Ni997      Ni  0.40271761  0.80427527  0.86695198     1.26300
O998        O  0.43361694  0.88160836  0.89284634    -0.66900
O999        O  0.36124462  0.77113774  0.87380225    -0.79200
C1000       C  0.40254701  0.80741620  0.80936530     0.84300
O1001       O  0.39905099  0.78991113  0.82954263    -0.66400
Ni1002     Ni  0.39938570  0.79437364  0.93411661     1.27400
Ni1003     Ni  0.44969967  0.85395002  0.89869571     1.26100
H1004       H  0.45789735  0.83016623  0.85904803     0.38800
O1005       O  0.34179024  0.92477568  0.19257391    -0.81100
O1006       O  0.37062257  0.95818162  0.06478855    -0.65800
O1007       O  0.34300523  0.94825101  0.13976095    -1.12400
C1008       C  0.26685200  0.84850832  0.10542572     1.05700
O1009       O  0.32269381  0.94119016  0.05034306    -0.79000
O1010       O  0.27149959  0.91253159  0.08140404    -0.66600
Ni1011     Ni  0.37199878  0.95560584  0.16865041     1.34900
C1012       C  0.26672798  0.92018918  0.10513491     0.84500
O1013       O  0.39001720  0.99559631  0.10854971    -0.79600
O1014       O  0.40601328  0.98916505  0.14975318    -0.89900
C1015       C  0.35178261  0.95812664  0.04705846     0.84100
O1016       O  0.38199781  0.92615060  0.15417957    -0.68100
O1017       O  0.27526023  0.85999635  0.08134688    -0.87300
C1018       C  0.39267059  0.92618724  0.13036223     0.84900
C1019       C  0.40950609  0.50515021  0.12827104     1.06500
H1020       H  0.33621992  0.89877532  0.09684849     0.38300
O1021       O  0.32679957  0.91159061  0.09827301    -1.10000
O1022       O  0.28188469  0.92078649  0.12649332    -0.66700
Ni1023     Ni  0.31022498  0.90619389  0.13451669     1.26300
O1024       O  0.38814192  0.93946073  0.10977116    -0.66900
O1025       O  0.27803234  0.86413599  0.12769531    -0.79200
C1026       C  0.31241703  0.90879024  0.19319775     0.84300
O1027       O  0.29557364  0.90194827  0.17169705    -0.66400
Ni1028     Ni  0.29999748  0.90100249  0.06718363     1.27400
Ni1029     Ni  0.35852114  0.95354064  0.10277284     1.26100
H1030       H  0.33451157  0.96172344  0.14266835     0.38800
O1031       O  0.41129512  0.56901243  0.80591831    -0.81100
O1032       O  0.40978924  0.53787560  0.93364217    -0.65800
O1033       O  0.39013374  0.54653252  0.85897301    -1.12400
C1034       C  0.41756308  0.64759984  0.89245834     1.05700
O1035       O  0.37943982  0.55539239  0.94805425    -0.79000
O1036       O  0.35769213  0.58534187  0.91751829    -0.66600
Ni1037     Ni  0.41055060  0.53804931  0.82984430     1.34900
C1038       C  0.34406783  0.57656196  0.89429962     0.84500
O1039       O  0.38980009  0.49953701  0.89069057    -0.79600
O1040       O  0.41056016  0.50426458  0.84896953    -0.89900
C1041       C  0.39191449  0.53878699  0.95173915     0.84100
O1042       O  0.45088820  0.56692993  0.84344710    -0.68100
O1043       O  0.41514142  0.63656012  0.91664383    -0.87300
C1044       C  0.46182320  0.56721736  0.86727999     0.84900
C1045       C  0.39902708  0.98926791  0.87111399     1.06500
H1046       H  0.43472575  0.59641158  0.90073216     0.38300
O1047       O  0.41240327  0.58392860  0.89981956    -1.10000
O1048       O  0.35762421  0.57496321  0.87268394    -0.66700
Ni1049     Ni  0.40031008  0.58890625  0.86388739     1.26300
O1050       O  0.44433120  0.55480090  0.88811580    -0.66900
O1051       O  0.41125279  0.63132608  0.87035639    -0.79200
C1052       C  0.39849573  0.58556492  0.80552669     0.84300
O1053       O  0.38911802  0.59281924  0.82704970    -0.66400
Ni1054     Ni  0.39773586  0.59558267  0.93109339     1.27400
Ni1055     Ni  0.40118176  0.54176428  0.89582543     1.26100
H1056       H  0.36806159  0.53332583  0.85649199     0.38800
C1057       C  0.36304920  0.97945484  0.02315217    -0.05700
C1058       C  0.39179572  0.98816054  0.01087324    -0.33100
C1059       C  0.40162949  0.50726596  0.98743162     0.36100
C1060       C  0.38297024  0.51859571  0.97640147    -0.06100
C1061       C  0.35465872  0.51039564  0.98918259    -0.33000
C1062       C  0.34466626  0.99111389  0.01215009     0.36000
H1063       H  0.40637974  0.97967497  0.01912366     0.16400
O1064       O  0.42983309  0.51541129  0.97602113    -0.60500
H1065       H  0.33982292  0.51870830  0.98116616     0.16400
O1066       O  0.31681253  0.98401015  0.02378552    -0.60600
H1067       H  0.32201249  0.99972105  0.03856594     0.43400
H1068       H  0.42576871  0.49825771  0.96312971     0.43300
C1069       C  0.39836110  0.95963712  0.87420953    -0.05700
C1070       C  0.41059211  0.95391193  0.89814940    -0.33100
C1071       C  0.41743330  0.92983046  0.89863392     0.36100
C1072       C  0.41156979  0.91093778  0.87499251    -0.06100
C1073       C  0.39619908  0.91483064  0.85229020    -0.33000
C1074       C  0.38998797  0.93914685  0.85164442     0.36000
H1075       H  0.41705380  0.96953617  0.91569753     0.16400
O1076       O  0.43153302  0.92629808  0.92160207    -0.60500
H1077       H  0.39053822  0.90007720  0.83418395     0.16400
O1078       O  0.37640728  0.94323393  0.82855503    -0.60600
H1079       H  0.39317442  0.95274082  0.81468323     0.43400
H1080       H  0.45404597  0.94048300  0.91887591     0.43300
C1081       C  0.42609826  0.68058301  0.89040579    -0.05700
C1082       C  0.41726193  0.69081749  0.86693280    -0.33100
C1083       C  0.41769508  0.71909965  0.86729819     0.36100
C1084       C  0.42666374  0.73740646  0.89157062    -0.06100
C1085       C  0.43870851  0.72879579  0.91384969    -0.33000
C1086       C  0.43899095  0.70092960  0.91323481     0.36000
H1087       H  0.40778533  0.67591246  0.84894953     0.16400
O1088       O  0.40609583  0.72684735  0.84491476    -0.60500
H1089       H  0.44659533  0.74302564  0.93236373     0.16400
O1090       O  0.45021899  0.69304358  0.93580070    -0.60600
H1091       H  0.47184047  0.69903059  0.93101006     0.43400
H1092       H  0.42418616  0.73893447  0.83279071     0.43300
C1093       C  0.01801719  0.87995671  0.02408681    -0.05700
C1094       C  0.50659293  0.89855957  0.01345119    -0.33100
C1095       C  0.48623693  0.88857613  0.99067420     0.36100
C1096       C  0.47678020  0.85945949  0.97840859    -0.06100
C1097       C  0.98779337  0.84076876  0.98946600    -0.33000
C1098       C  0.00829463  0.85078036  0.01182973     0.36000
H1099       H  0.51364068  0.92097897  0.02266194     0.16400
O1100       O  0.47551411  0.90726111  0.98083936    -0.60500
H1101       H  0.98076308  0.81821911  0.98053863     0.16400
O1102       O  0.01766997  0.83119894  0.02222509    -0.60600
H1103       H  0.03447324  0.83342806  0.00983030     0.43400
H1104       H  0.45631320  0.90133389  0.99136533     0.43300
C1105       C  0.46168901  0.89850462  0.12771172    -0.05700
C1106       C  0.45306693  0.90711939  0.10311702    -0.33100
C1107       C  0.42879273  0.91381943  0.10284770     0.36100
C1108       C  0.41299459  0.91224714  0.12755644    -0.06100
C1109       C  0.41948019  0.90009971  0.15121377    -0.33000
C1110       C  0.44344311  0.89324511  0.15139151     0.36000
H1111       H  0.46653684  0.91081048  0.08454820     0.16400
O1112       O  0.42223986  0.92383008  0.07878608    -0.60500
H1113       H  0.40713328  0.89748032  0.17029600     0.16400
O1114       O  0.45000618  0.88310471  0.17539830    -0.60600
H1115       H  0.43904089  0.86021808  0.17362217     0.43400
H1116       H  0.40641821  0.90474012  0.06925575     0.43300
C1117       C  0.18403533  0.92669291  0.10792542    -0.05700
C1118       C  0.19536777  0.92036289  0.13221959    -0.33100
C1119       C  0.22359229  0.92046543  0.13233357     0.36100
C1120       C  0.24105384  0.92698871  0.10785312    -0.06100
C1121       C  0.23118166  0.93619840  0.08441826    -0.33000
C1122       C  0.20325164  0.93642038  0.08434641     0.36000
H1123       H  0.18144045  0.91331490  0.15075714     0.16400
O1124       O  0.23272684  0.91212511  0.15598467    -0.60500
H1125       H  0.24456065  0.94203496  0.06556257     0.16400
O1126       O  0.19427113  0.94452948  0.06047830    -0.60600
H1127       H  0.20241385  0.96712938  0.06220979     0.43400
H1128       H  0.22315591  0.88928419  0.15480668     0.43300
C1129       C  0.25564490  0.67949709  0.89380561    -0.05700
C1130       C  0.26533266  0.69867557  0.91728397    -0.33100
C1131       C  0.29363088  0.72643034  0.91758583     0.36100
C1132       C  0.31331005  0.73499725  0.89437677    -0.06100
C1133       C  0.30233312  0.71711607  0.87011329    -0.33000
C1134       C  0.27367813  0.68968105  0.86962753     0.36000
H1135       H  0.25141046  0.69158809  0.93583880     0.16400
O1136       O  0.30234030  0.74424181  0.94115155    -0.60500
H1137       H  0.31676296  0.72332390  0.85190478     0.16400
O1138       O  0.26507714  0.67157130  0.84624415    -0.60600
H1139       H  0.25349240  0.67892931  0.83485284     0.43400
H1140       H  0.29546475  0.75957087  0.93825669     0.43300
C1141       C  0.03172474  0.93377084  0.87293498    -0.05700
C1142       C  0.05037571  0.94485301  0.84940466    -0.33100
C1143       C  0.07417924  0.97566932  0.84777121     0.36100
C1144       C  0.07986769  0.49635417  0.87003108    -0.06100
C1145       C  0.06276277  0.98453805  0.89447605    -0.33000
C1146       C  0.03893326  0.95353670  0.89607212     0.36000
H1147       H  0.04550668  0.92989750  0.83154298     0.16400
O1148       O  0.09111680  0.48539055  0.82392186    -0.60500
H1149       H  0.06664951  0.99972588  0.91195264     0.16400
O1150       O  0.02097260  0.94377657  0.91932950    -0.60600
H1151       H  0.03088146  0.93512390  0.93137308     0.43400
H1152       H  0.07797217  0.48889378  0.81066027     0.43300
C1153       C  0.31139056  0.56953465  0.89235104    -0.05700
C1154       C  0.29980359  0.57418275  0.86740632    -0.33100
C1155       C  0.27149914  0.57396628  0.86657783     0.36100
C1156       C  0.25432599  0.56926815  0.89107492    -0.06100
C1157       C  0.26457343  0.56154394  0.91528445    -0.33000
C1158       C  0.29261456  0.56153863  0.91603613     0.36000
H1159       H  0.31357503  0.57990013  0.84880294     0.16400
O1160       O  0.26213475  0.58056526  0.84213233    -0.60500
H1161       H  0.25157576  0.55688107  0.93426757     0.16400
O1162       O  0.30212413  0.55512704  0.94050518    -0.60600
H1163       H  0.29269085  0.53228173  0.94070928     0.43400
H1164       H  0.24962101  0.56026182  0.83273202     0.43300
C1165       C  0.49602150  0.58068192  0.87015438    -0.05700
C1166       C  0.01496584  0.59418017  0.84696715    -0.33100
C1167       C  0.04594385  0.60144296  0.84700420     0.36100
C1168       C  0.05875143  0.59536310  0.87047122    -0.06100
C1169       C  0.04102753  0.58501978  0.89460875    -0.33000
C1170       C  0.00983714  0.57749371  0.89457732     0.36000
H1171       H  0.00541060  0.59772658  0.82812167     0.16400
O1172       O  0.06304483  0.61293149  0.82341788    -0.60500
H1173       H  0.05060372  0.58048108  0.91294804     0.16400
O1174       O  0.49284520  0.56568532  0.91816522    -0.60600
H1175       H  0.48581419  0.54323352  0.91768434     0.43400
H1176       H  0.07449201  0.63573710  0.82598148     0.43300
C1177       C  0.00050907  0.58400859  0.12654687    -0.05700
C1178       C  0.48222555  0.57714646  0.15038070    -0.33100
C1179       C  0.45159226  0.55303412  0.15042657     0.36100
C1180       C  0.43843916  0.53518592  0.12637498    -0.06100
C1181       C  0.45532373  0.54402372  0.10171823    -0.33000
C1182       C  0.48620023  0.56833274  0.10162212     0.36000
H1183       H  0.49211225  0.58933141  0.16963574     0.16400
O1184       O  0.43526910  0.54588301  0.17464076    -0.60500
H1185       H  0.44537308  0.53069441  0.08296156     0.16400
O1186       O  0.00264739  0.57487218  0.07753401    -0.60600
H1187       H  0.00001395  0.59128634  0.06862547     0.43400
H1188       H  0.42221935  0.55567813  0.17322507     0.43300
C1189       C  0.24168457  0.81564246  0.10695213    -0.05700
C1190       C  0.23258596  0.79760382  0.08264668    -0.33100
C1191       C  0.20511465  0.76910170  0.08146534     0.36100
C1192       C  0.18624403  0.75769132  0.10501230    -0.06100
C1193       C  0.19687416  0.77411932  0.13007875    -0.33000
C1194       C  0.22428832  0.80288944  0.13120135     0.36000
H1195       H  0.24596814  0.80625324  0.06390632     0.16400
O1196       O  0.19656880  0.75292635  0.05695800    -0.60500
H1197       H  0.18280859  0.76576786  0.14848335     0.16400
O1198       O  0.23228874  0.81928806  0.15555945    -0.60600
H1199       H  0.24619863  0.81340903  0.16513545     0.43400
H1200       H  0.18865015  0.76374124  0.04520509     0.43300
C1201       C  0.07526912  0.81475646  0.10755650    -0.05700
C1202       C  0.06506589  0.79531508  0.08427369    -0.33100
C1203       C  0.06486739  0.76722032  0.08409633     0.36100
C1204       C  0.07577519  0.75828398  0.10734135    -0.06100
C1205       C  0.08371286  0.77663566  0.13140929    -0.33000
C1206       C  0.08355540  0.80468579  0.13164043     0.36000
H1207       H  0.05811475  0.80239729  0.06571955     0.16400
O1208       O  0.05530094  0.74944631  0.06050970    -0.60500
H1209       H  0.09193278  0.77028010  0.14959467     0.16400
O1210       O  0.09353271  0.82296523  0.15491971    -0.60600
H1211       H  0.11617936  0.83665326  0.15247968     0.43400
H1212       H  0.03271057  0.73538822  0.06285489     0.43300
C1213       C  0.09754866  0.56041943  0.12209081    -0.05700
C1214       C  0.10943160  0.55072861  0.14365995    -0.33100
C1215       C  0.10265229  0.51998934  0.14525536     0.36100
C1216       C  0.08319030  0.99814736  0.12521600    -0.06100
C1217       C  0.07371904  0.50862510  0.10223754    -0.33000
C1218       C  0.08089309  0.53958006  0.10052939     0.36000
H1219       H  0.12272915  0.56672018  0.16015140     0.16400
O1220       O  0.11457644  0.01143189  0.16686343    -0.60500
H1221       H  0.05898411  0.49243049  0.08644333     0.16400
O1222       O  0.06863559  0.54830536  0.07933245    -0.60600
H1223       H  0.08386807  0.55440907  0.06415215     0.43400
H1224       H  0.10174103  0.00989196  0.18305648     0.43300
C1225       C  0.11254263  0.63409076  0.02033869    -0.05700
C1226       C  0.14218532  0.65251471  0.00922732    -0.33100
C1227       C  0.15229141  0.64225661  0.98686586     0.36100
C1228       C  0.13258674  0.61297855  0.97475182    -0.06100
C1229       C  0.10256580  0.59468697  0.98540152    -0.33000
C1230       C  0.09257817  0.60493308  0.00819434     0.36000
H1231       H  0.15798332  0.67497952  0.01820317     0.16400
O1232       O  0.18159823  0.66127209  0.97699352    -0.60500
H1233       H  0.08700787  0.57221668  0.97633775     0.16400
O1234       O  0.06332307  0.58635062  0.01830561    -0.60600
H1235       H  0.05014404  0.59322902  0.00883831     0.43400
H1236       H  0.17908961  0.67377546  0.96242288     0.43300
C1237       C  0.40386721  0.60493316  0.72125992    -0.05700
C1238       C  0.42456609  0.62801355  0.73951750    -0.33100
C1239       C  0.42041053  0.62407461  0.76805917     0.36100
C1240       C  0.39548414  0.59667813  0.77840878    -0.06100
C1241       C  0.37286205  0.57538105  0.76014031    -0.33000
C1242       C  0.37685616  0.57946316  0.73158229     0.36000
H1243       H  0.44570130  0.64744245  0.73173913     0.16400
O1244       O  0.44314702  0.64484006  0.78549569    -0.60500
H1245       H  0.35389471  0.55392841  0.76793632     0.16400
O1246       O  0.35677405  0.55620401  0.71417500    -0.60600
H1247       H  0.34375611  0.56394071  0.70581443     0.43400
H1248       H  0.43500576  0.65794785  0.79287959     0.43300
C1249       C  0.48173866  0.61585662  0.52261049    -0.05700
C1250       C  0.49103939  0.64461258  0.51029490    -0.33100
C1251       C  0.01014529  0.65424747  0.48719336     0.36100
C1252       C  0.02053522  0.63504676  0.47560066    -0.06100
C1253       C  0.01079794  0.60592456  0.48746972    -0.33000
C1254       C  0.49187718  0.59644958  0.51105381     0.36000
H1255       H  0.48367670  0.66004540  0.51875613     0.16400
O1256       O  0.01829210  0.68253929  0.47602122    -0.60500
H1257       H  0.01830915  0.59072384  0.47876886     0.16400
O1258       O  0.48271435  0.56788913  0.52206876    -0.60600
H1259       H  0.99986026  0.57108466  0.53463617     0.43400
H1260       H  0.50265185  0.67817549  0.46137999     0.43300
C1261       C  0.10497912  0.69960854  0.21995372    -0.05700
C1262       C  0.12673751  0.69651330  0.23606915    -0.33100
C1263       C  0.12461984  0.69533728  0.26491686     0.36100
C1264       C  0.10060587  0.69744740  0.27804482    -0.06100
C1265       C  0.08097484  0.70402052  0.26215991    -0.33000
C1266       C  0.08291208  0.70488369  0.23318729     0.36000
H1267       H  0.14338142  0.69169690  0.22617728     0.16400
O1268       O  0.14376904  0.68839268  0.27984839    -0.60500
H1269       H  0.06207714  0.70522217  0.27196958     0.16400
O1270       O  0.06126478  0.70780980  0.21795045    -0.60600
H1271       H  0.04344545  0.68647162  0.21590649     0.43400
H1272       H  0.16037417  0.70855778  0.28714554     0.43300
C1273       C  0.20338272  0.60100374  0.72097323    -0.05700
C1274       C  0.20246881  0.62526386  0.73483451    -0.33100
C1275       C  0.20080167  0.62538748  0.76369707     0.36100
C1276       C  0.19991681  0.60097020  0.77888292    -0.06100
C1277       C  0.20431923  0.57863807  0.76523633    -0.33000
C1278       C  0.20636917  0.57873479  0.73637111     0.36000
H1279       H  0.19971256  0.64226763  0.72321571     0.16400
O1280       O  0.19678542  0.64764250  0.77669065    -0.60500
H1281       H  0.20317635  0.55947735  0.77669001     0.16400
O1282       O  0.20676232  0.55448427  0.72328920    -0.60600
H1283       H  0.22888824  0.56214802  0.71908734     0.43400
H1284       H  0.17430547  0.64035139  0.77512102     0.43300
C1285       C  0.26243276  0.57518943  0.60754711    -0.05700
C1286       C  0.27951818  0.58223583  0.63230928    -0.33100
C1287       C  0.30835405  0.58360961  0.63316622     0.36100
C1288       C  0.32028685  0.57740306  0.60904440    -0.06100
C1289       C  0.30178593  0.56772955  0.58504953    -0.33000
C1290       C  0.27322177  0.56656705  0.58416702     0.36000
H1291       H  0.27158817  0.58881611  0.65056691     0.16400
O1292       O  0.32536058  0.59286467  0.65719506    -0.60500
H1293       H  0.31004544  0.56223587  0.56638296     0.16400
O1294       O  0.25673186  0.55835574  0.55984958    -0.60600
H1295       H  0.24174960  0.53589225  0.56150473     0.43400
H1296       H  0.33738030  0.61580482  0.65639205     0.43300
C1297       C  0.08762700  0.58519601  0.62543316    -0.05700
C1298       C  0.08493636  0.60252589  0.64715493    -0.33100
C1299       C  0.06194109  0.61068915  0.64675951     0.36100
C1300       C  0.04113259  0.60176841  0.62435918    -0.06100
C1301       C  0.04571934  0.58745511  0.60128758    -0.33000
C1302       C  0.06869233  0.57897818  0.60171889     0.36000
H1303       H  0.09964810  0.60843807  0.66530567     0.16400
O1304       O  0.05869148  0.62566781  0.66923128    -0.60500
H1305       H  0.02988332  0.58054127  0.58386287     0.16400
O1306       O  0.07109306  0.56307380  0.57956767    -0.60600
H1307       H  0.05578641  0.54099852  0.58300889     0.43400
H1308       H  0.07129002  0.64803188  0.66495626     0.43300
C1309       C  0.12056972  0.97781596  0.47780128    -0.05700
C1310       C  0.10098969  0.98788778  0.48875741    -0.33100
C1311       C  0.11010559  0.50768530  0.51185848     0.36100
C1312       C  0.13956245  0.51841220  0.52391327    -0.06100
C1313       C  0.15927723  0.50870512  0.51262479    -0.33000
C1314       C  0.15004113  0.98859734  0.48992704     0.36000
H1315       H  0.07838465  0.98011388  0.47959456     0.16400
O1316       O  0.09053002  0.51729309  0.52180569    -0.60500
H1317       H  0.18201514  0.51657490  0.52155514     0.16400
O1318       O  0.17029434  0.98003740  0.47956974    -0.60600
H1319       H  0.18194428  0.99533332  0.46496228     0.43400
H1320       H  0.07587516  0.50034726  0.53395764     0.43300
C1321       C  0.10079583  0.53490695  0.37528408    -0.05700
C1322       C  0.11047249  0.55528592  0.35291994    -0.33100
C1323       C  0.10348247  0.57914365  0.35161240     0.36100
C1324       C  0.08596706  0.58266491  0.37278589    -0.06100
C1325       C  0.07877722  0.56392836  0.39637997    -0.33000
C1326       C  0.08626270  0.54031844  0.39780322     0.36000
H1327       H  0.12214781  0.55170557  0.33565002     0.16400
O1328       O  0.11318945  0.59831230  0.32912843    -0.60500
H1329       H  0.06561418  0.56623873  0.41306157     0.16400
O1330       O  0.07631313  0.02067562  0.41993806    -0.60600
H1331       H  0.09378175  0.02982515  0.43334085     0.43400
H1332       H  0.09877196  0.58611248  0.31391503     0.43300
C1333       C  0.07765635  0.81468857  0.39053862    -0.05700
C1334       C  0.06440175  0.79459500  0.41305301    -0.33100
C1335       C  0.06293165  0.76586460  0.41366223     0.36100
C1336       C  0.07455280  0.75652112  0.39143862    -0.06100
C1337       C  0.08551549  0.77535126  0.36798891    -0.33000
C1338       C  0.08748894  0.80437994  0.36750614     0.36000
H1339       H  0.05632747  0.80169809  0.43087615     0.16400
O1340       O  0.05139082  0.74771121  0.43664735    -0.60500
H1341       H  0.09478065  0.76861235  0.35078255     0.16400
O1342       O  0.10093002  0.82316834  0.34517338    -0.60600
H1343       H  0.12350508  0.83446428  0.34922416     0.43400
H1344       H  0.02901395  0.73389537  0.43269234     0.43300
C1345       C  0.10328311  0.90207240  0.27916921    -0.05700
C1346       C  0.08191150  0.87486885  0.26531553    -0.33100
C1347       C  0.08088292  0.87372228  0.23634875     0.36100
C1348       C  0.10102455  0.90021394  0.22110180    -0.06100
C1349       C  0.12415466  0.92633557  0.23499038    -0.33000
C1350       C  0.12550206  0.92730280  0.26385949     0.36000
H1351       H  0.06428644  0.85555931  0.27688030     0.16400
O1352       O  0.05748245  0.84820311  0.22331531    -0.60500
H1353       H  0.13932320  0.94707254  0.22353117     0.16400
O1354       O  0.14604150  0.95444382  0.27690867    -0.60600
H1355       H  0.16443513  0.95238347  0.28102368     0.43400
H1356       H  0.06721065  0.83623475  0.21665776     0.43300
C1357       C  0.39526431  0.79870950  0.72289082    -0.05700
C1358       C  0.41828729  0.79547566  0.73663429    -0.33100
C1359       C  0.41821042  0.79347482  0.76550208     0.36100
C1360       C  0.39537808  0.79556579  0.78086633    -0.06100
C1361       C  0.37077835  0.79581886  0.76695605    -0.33000
C1362       C  0.37039792  0.79696096  0.73805748     0.36000
H1363       H  0.43777031  0.79724264  0.72520387     0.16400
O1364       O  0.44283381  0.79384695  0.77861878    -0.60500
H1365       H  0.35338567  0.79800144  0.77855331     0.16400
O1366       O  0.34784427  0.80048212  0.72509376    -0.60600
H1367       H  0.33036029  0.77912411  0.72215643     0.43400
H1368       H  0.43587502  0.77181962  0.78248134     0.43300
C1369       C  0.31254081  0.74301952  0.60804193    -0.05700
C1370       C  0.29508986  0.73169244  0.58364618    -0.33100
C1371       C  0.26765031  0.70315404  0.58305581     0.36100
C1372       C  0.25743952  0.68472085  0.60709186    -0.06100
C1373       C  0.27312600  0.69761506  0.63214708    -0.33000
C1374       C  0.30027692  0.72665299  0.63281318     0.36000
H1375       H  0.30352641  0.74434546  0.56452355     0.16400
O1376       O  0.25219260  0.69283097  0.55834803    -0.60500
H1377       H  0.26547180  0.68444071  0.65106522     0.16400
O1378       O  0.31607506  0.73726386  0.65732882    -0.60600
H1379       H  0.30825614  0.75028046  0.66557467     0.43400
H1380       H  0.23604143  0.69891337  0.55864531     0.43300
C1381       C  0.06372736  0.96366621  0.62824353    -0.05700
C1382       C  0.04492114  0.95689602  0.60465048    -0.33100
C1383       C  0.01372540  0.93324968  0.60504642     0.36100
C1384       C  0.50092017  0.91594629  0.62940360    -0.06100
C1385       C  0.02079779  0.92101287  0.65196950    -0.33000
C1386       C  0.05178159  0.94458070  0.65153599     0.36000
H1387       H  0.05374095  0.97140406  0.58655416     0.16400
O1388       O  0.99557881  0.92901910  0.58225579    -0.60500
H1389       H  0.51199945  0.90772893  0.67073084     0.16400
O1390       O  0.06977557  0.44993971  0.67467941    -0.60600
H1391       H  0.07965808  0.43709062  0.67211095     0.43400
H1392       H  0.99682616  0.91302740  0.57098211     0.43300
C1393       C  0.42344833  0.74207854  0.61100782    -0.05700
C1394       C  0.43771082  0.73608292  0.58864344    -0.33100
C1395       C  0.44043981  0.70950399  0.58788739     0.36100
C1396       C  0.42871402  0.68809327  0.60968383    -0.06100
C1397       C  0.41702607  0.69539562  0.63315616    -0.33000
C1398       C  0.41409159  0.72193506  0.63387846     0.36000
H1399       H  0.44576514  0.75145508  0.57106558     0.16400
O1400       O  0.45325902  0.70397269  0.56507220    -0.60500
H1401       H  0.40792116  0.67931475  0.65019758     0.16400
O1402       O  0.40032511  0.72680837  0.65635016    -0.60600
H1403       H  0.37776829  0.71520987  0.65224528     0.43400
H1404       H  0.47488516  0.71048180  0.57053295     0.43300
C1405       C  0.40616742  0.94227120  0.63151137    -0.05700
C1406       C  0.40432760  0.95616938  0.65613921    -0.33100
C1407       C  0.41144122  0.98705893  0.65695154     0.36100
C1408       C  0.42077223  0.50516369  0.63267425    -0.06100
C1409       C  0.42026709  0.99049078  0.60755603    -0.33000
C1410       C  0.41282120  0.95928439  0.60681334     0.36000
H1411       H  0.39861765  0.94337663  0.67530568     0.16400
O1412       O  0.41017787  0.49943910  0.68195135    -0.60500
H1413       H  0.42699717  0.00356123  0.58854955     0.16400
O1414       O  0.41471888  0.94659128  0.58222701    -0.60600
H1415       H  0.39353182  0.93675363  0.57419920     0.43400
H1416       H  0.43003340  0.50503630  0.69137737     0.43300
C1417       C  0.29924649  0.89302322  0.27853351    -0.05700
C1418       C  0.29933382  0.87028546  0.26139773    -0.33100
C1419       C  0.29922682  0.87283096  0.23259808     0.36100
C1420       C  0.29867864  0.89818193  0.22064197    -0.06100
C1421       C  0.29506514  0.91898061  0.23774967    -0.33000
C1422       C  0.29528494  0.91648674  0.26661104     0.36000
H1423       H  0.30284623  0.85236335  0.27030591     0.16400
O1424       O  0.30297932  0.85231249  0.21638208    -0.60500
H1425       H  0.29541079  0.93904892  0.22884043     0.16400
O1426       O  0.29582238  0.93936743  0.28283126    -0.60600
H1427       H  0.27373332  0.93271198  0.28615428     0.43400
H1428       H  0.32568189  0.86059202  0.21564846     0.43300
C1429       C  0.36468312  0.88432542  0.47912624    -0.05700
C1430       C  0.34299829  0.86010408  0.49570009    -0.33100
C1431       C  0.35228294  0.85049582  0.51902205     0.36100
C1432       C  0.38379401  0.86518794  0.52656345    -0.06100
C1433       C  0.40559815  0.88997878  0.51068346    -0.33000
C1434       C  0.39631589  0.89942662  0.48693461     0.36000
H1435       H  0.31856241  0.84802780  0.49040447     0.16400
O1436       O  0.33022996  0.82655846  0.53433937    -0.60500
H1437       H  0.42994659  0.90145685  0.51626082     0.16400
O1438       O  0.41841112  0.92294358  0.47133473    -0.60600
H1439       H  0.42039687  0.94220013  0.47933669     0.43400
H1440       H  0.32489739  0.83659241  0.54940447     0.43300
C1441       C  0.46406867  0.55744882  0.37289864    -0.05700
C1442       C  0.44501083  0.54559675  0.34948697    -0.33100
C1443       C  0.42037904  0.51514854  0.34874958     0.36100
C1444       C  0.41487184  0.99541220  0.37151760    -0.06100
C1445       C  0.43242772  0.50817013  0.39584166    -0.40200
C1446       C  0.45675038  0.53902513  0.39669983     0.36000
H1447       H  0.45006791  0.55967633  0.33115143     0.16400
O1448       O  0.40316465  0.50453324  0.32492215    -0.60500
H1449       H  0.42859058  0.99376711  0.41374746     0.16400
O1450       O  0.97511764  0.54983291  0.41987532    -0.60600
H1451       H  0.96512656  0.55855736  0.43174839     0.43400
H1452       H  0.38532343  0.50786515  0.32767551     0.43300
C1453       C  0.24088373  0.81198675  0.39241524    -0.05700
C1454       C  0.22209898  0.80362516  0.36864733    -0.33100
C1455       C  0.19332920  0.77621230  0.36773023     0.36100
C1456       C  0.18316103  0.75614188  0.39065125    -0.06100
C1457       C  0.20314858  0.76353971  0.41358221    -0.33000
C1458       C  0.23164562  0.79114070  0.41461853     0.36000
H1459       H  0.22868775  0.81942940  0.35141087     0.16400
O1460       O  0.17465409  0.77036983  0.34499415    -0.60500
H1461       H  0.19616280  0.74848024  0.43137441     0.16400
O1462       O  0.24968464  0.79810389  0.43794674    -0.60600
H1463       H  0.26269054  0.78846095  0.43495213     0.43400
H1464       H  0.16281448  0.78112988  0.34872899     0.43300
C1465       C  0.00277571  0.91641574  0.37644044    -0.05700
C1466       C  0.48171439  0.89618332  0.35652729    -0.33100
C1467       C  0.45067775  0.88850449  0.35690972     0.36100
C1468       C  0.44007918  0.90074197  0.37756501    -0.06100
C1469       C  0.46031062  0.91895054  0.39877016    -0.33000
C1470       C  0.49163116  0.92711624  0.39820859     0.36000
H1471       H  0.48962092  0.88742393  0.33978007     0.16400
O1472       O  0.43124982  0.87053149  0.33601890    -0.60500
H1473       H  0.45242596  0.92888553  0.41453372     0.16400
O1474       O  0.01143674  0.94733177  0.41781570    -0.60600
H1475       H  0.01777940  0.96825977  0.41063607     0.43400
H1476       H  0.42090210  0.84907540  0.34317027     0.43300
C1477       C  0.24326316  0.92278586  0.39035521    -0.05700
C1478       C  0.23642673  0.93593814  0.41310232    -0.33100
C1479       C  0.20884807  0.93677175  0.41404582     0.36100
C1480       C  0.18763464  0.92459309  0.39193386    -0.06100
C1481       C  0.19557584  0.91393622  0.36817642    -0.33000
C1482       C  0.22296876  0.91261342  0.36735330     0.36000
H1483       H  0.25179352  0.94425612  0.43087953     0.16400
O1484       O  0.20212765  0.94810615  0.43726881    -0.60500
H1485       H  0.17938617  0.90433061  0.35103049     0.16400
O1486       O  0.22842140  0.89926763  0.34481980    -0.60600
H1487       H  0.21798142  0.87680737  0.34892709     0.43400
H1488       H  0.21078623  0.97051305  0.43377679     0.43300
O1489       O  0.84255170  0.40980850  0.30691779    -0.81100
O1490       O  0.87198876  0.40982981  0.43552255    -0.65800
O1491       O  0.84363910  0.38972584  0.36066226    -1.12400
C1492       C  0.76876039  0.41579826  0.39278413     1.05700
O1493       O  0.82422440  0.37991674  0.45003829    -0.79000
O1494       O  0.77271358  0.35685492  0.41872671    -0.66600
Ni1495     Ni  0.87276586  0.41008522  0.33180576     1.34900
C1496       C  0.76733868  0.34395072  0.39513677     0.84500
O1497       O  0.89057589  0.38989170  0.39301547    -0.79600
O1498       O  0.90688350  0.41128290  0.35165047    -0.89900
C1499       C  0.85332985  0.39244338  0.45382456     0.84100
O1500       O  0.88295134  0.45003536  0.34520159    -0.68100
O1501       O  0.77711081  0.41332063  0.41716072    -0.87300
C1502       C  0.89398250  0.46129722  0.36889416     0.84900
C1503       C  0.91047288  0.39995608  0.37388438     1.06500
H1504       H  0.83801801  0.43432590  0.40224916     0.38300
O1505       O  0.82825073  0.41203604  0.40121524    -1.10000
O1506       O  0.78228814  0.35778838  0.37359530    -0.66700
Ni1507     Ni  0.81154174  0.40020857  0.36495148     1.26300
O1508       O  0.88937306  0.44411900  0.38990627    -0.66900
O1509       O  0.78008727  0.41110866  0.37086879    -0.79200
C1510       C  0.81325285  0.39753758  0.30620570     0.84300
O1511       O  0.79662762  0.38921531  0.32773015    -0.66400
Ni1512     Ni  0.80169243  0.39718458  0.43226637     1.27400
Ni1513     Ni  0.85941494  0.40096915  0.39766967     1.26100
H1514       H  0.83467336  0.36762686  0.35825557     0.38800
O1515       O  0.92029596  0.34136782  0.69350594    -0.81100
O1516       O  0.91226282  0.37254503  0.56823260    -0.65800
O1517       O  0.89463306  0.34512374  0.64292886    -1.12400
C1518       C  0.91591473  0.26736778  0.60876737     1.05700
O1519       O  0.88112266  0.32458549  0.55356270    -0.79000
O1520       O  0.85894003  0.27245315  0.58349909    -0.66600
Ni1521     Ni  0.91725610  0.37257830  0.67242150     1.34900
C1522       C  0.84502657  0.26876571  0.60629465     0.84500
O1523       O  0.89628202  0.39363693  0.61245555    -0.79600
O1524       O  0.91554321  0.40666313  0.65541596    -0.89900
C1525       C  0.89356476  0.35371414  0.55038753     0.84100
O1526       O  0.95701705  0.38529221  0.65710083    -0.68100
O1527       O  0.91587257  0.27766297  0.58463656    -0.87300
C1528       C  0.96688937  0.39531122  0.63302747     0.84900
C1529       C  0.90544516  0.41213913  0.63309221     1.06500
H1530       H  0.93643206  0.33708827  0.60129261     0.38300
O1531       O  0.91419567  0.32816739  0.60174917    -1.10000
O1532       O  0.85825608  0.28501555  0.62762757    -0.66700
Ni1533     Ni  0.90123286  0.31081531  0.63737676     1.26300
O1534       O  0.94862258  0.38956929  0.61256967    -0.66900
O1535       O  0.90884162  0.27702515  0.63057340    -0.79200
C1536       C  0.90157248  0.31239663  0.69518099     0.84300
O1537       O  0.88862459  0.29581710  0.67401481    -0.66400
Ni1538     Ni  0.89901125  0.30201002  0.57024031     1.27400
Ni1539     Ni  0.90496735  0.36074033  0.60617668     1.26100
H1540       H  0.87286317  0.33774551  0.64588320     0.38800
O1541       O  0.57869827  0.41799513  0.31096295    -0.81100
O1542       O  0.59184536  0.45723500  0.43612369    -0.65800
O1543       O  0.60716489  0.44695643  0.36082319    -1.12400
C1544       C  0.58451935  0.34723138  0.39306836     1.05700
O1545       O  0.62194703  0.43909298  0.45001270    -0.79000
O1546       O  0.64273739  0.40909939  0.41819075    -0.66600
Ni1547     Ni  0.58543057  0.45380838  0.33190501     1.34900
C1548       C  0.65565368  0.41844286  0.39493579     0.84500
O1549       O  0.60816545  0.49450105  0.39274615    -0.79600
O1550       O  0.59061331  0.49095241  0.34934865    -0.89900
C1551       C  0.61047522  0.45660959  0.45363452     0.84100
O1552       O  0.54545196  0.42951580  0.34756589    -0.68100
O1553       O  0.58566598  0.35774516  0.41743598    -0.87300
C1554       C  0.53633738  0.42884085  0.37212202     0.84900
C1555       C  0.60047320  0.00528780  0.37233786     1.06500
H1556       H  0.56528515  0.39765072  0.40268777     0.38300
O1557       O  0.58756748  0.41032602  0.40168434    -1.10000
O1558       O  0.64181877  0.42087180  0.37387244    -0.66700
Ni1559     Ni  0.59893166  0.40539101  0.36534411     1.26300
O1560       O  0.55485737  0.43934711  0.39262883    -0.66900
O1561       O  0.59024798  0.36361202  0.37129123    -0.79200
C1562       C  0.59712559  0.40761364  0.30766585     0.84300
O1563       O  0.61006429  0.40267488  0.32804162    -0.66400
Ni1564     Ni  0.60314852  0.39881824  0.43247637     1.27400
Ni1565     Ni  0.59817445  0.45254986  0.39801780     1.26100
H1566       H  0.62906351  0.46060921  0.35774903     0.38800
O1567       O  0.66109236  0.08073619  0.69086648    -0.81100
O1568       O  0.63144590  0.03929089  0.56556304    -0.65800
O1569       O  0.65930516  0.05168697  0.64062223    -1.12400
C1570       C  0.73318052  0.15136617  0.60553796     1.05700
O1571       O  0.67958068  0.05699493  0.55175696    -0.79000
O1572       O  0.73150263  0.08970503  0.58198226    -0.66600
Ni1573     Ni  0.63121369  0.04560609  0.66969031     1.34900
C1574       C  0.73610047  0.08096577  0.60519211     0.84500
O1575       O  0.61156326  0.00315619  0.60984055    -0.79600
O1576       O  0.59809609  0.00891103  0.65260751    -0.89900
C1577       C  0.65053518  0.03971604  0.54803132     0.84100
O1578       O  0.61711808  0.07120917  0.65388734    -0.68100
O1579       O  0.72347968  0.13958878  0.58156911    -0.87300
C1580       C  0.60763533  0.07124256  0.62954019     0.84900
C1581       C  0.59322566  0.49338274  0.63031523     1.06500
H1582       H  0.66498237  0.09966442  0.59786553     0.38300
O1583       O  0.67471813  0.08712292  0.59900811    -1.10000
O1584       O  0.72019178  0.07852964  0.62647533    -0.66700
Ni1585     Ni  0.69217197  0.09341532  0.63499573     1.26300
O1586       O  0.61358513  0.05872700  0.60925399    -0.66900
O1587       O  0.72422126  0.13556075  0.62783010    -0.79200
C1588       C  0.69029866  0.09286240  0.69295362     0.84300
O1589       O  0.70736320  0.09762940  0.67206832    -0.66400
Ni1590     Ni  0.70070255  0.09799522  0.56777479     1.27400
Ni1591     Ni  0.64339621  0.04503243  0.60362834     1.26100
H1592       H  0.66783006  0.03831111  0.64387399     0.38800
O1593       O  0.57655164  0.15442180  0.30692634    -0.81100
O1594       O  0.54108521  0.12652622  0.43395439    -0.65800
O1595       O  0.55072126  0.15305333  0.35881441    -1.12400
C1596       C  0.65075905  0.22997819  0.39262122     1.05700
O1597       O  0.55889866  0.17472532  0.44791713    -0.79000
O1598       O  0.58924933  0.22610005  0.41730376    -0.66600
Ni1599     Ni  0.54386253  0.12431918  0.32987015     1.34900
C1600       C  0.57994930  0.23011458  0.39409148     0.84500
O1601       O  0.50358316  0.10614988  0.39028482    -0.79600
O1602       O  0.50895775  0.09078196  0.34821858    -0.89900
C1603       C  0.54160302  0.14575996  0.45149796     0.84100
O1604       O  0.57187299  0.11267328  0.34491911    -0.68100
O1605       O  0.64037105  0.22010142  0.41678317    -0.87300
C1606       C  0.57212507  0.10285788  0.36901097     0.84900
C1607       C  0.99373507  0.08677473  0.37041819     1.06500
H1608       H  0.60053612  0.16029679  0.40083511     0.38300
O1609       O  0.58770468  0.16973925  0.39995873    -1.10000
O1610       O  0.57705875  0.21385395  0.37281826    -0.66700
Ni1611     Ni  0.59244786  0.18641884  0.36393004     1.26300
O1612       O  0.55939859  0.10826140  0.38949408    -0.66900
O1613       O  0.63430339  0.21950062  0.37063053    -0.79200
C1614       C  0.59037978  0.18381342  0.30563165     0.84300
O1615       O  0.59557847  0.20084909  0.32681214    -0.66400
Ni1616     Ni  0.59924046  0.19638327  0.43115987     1.27400
Ni1617     Ni  0.54557239  0.13798311  0.39586812     1.26100
H1618       H  0.53695459  0.16118417  0.35582946     0.38800
O1619       O  0.93502698  0.09319115  0.69424304    -0.81100
O1620       O  0.96206579  0.08942952  0.56552358    -0.65800
O1621       O  0.95394801  0.11085553  0.63989076    -1.12400
C1622       C  0.85298469  0.08459548  0.60718182     1.05700
O1623       O  0.94524248  0.12019146  0.55060174    -0.79000
O1624       O  0.91888539  0.14486690  0.58224379    -0.66600
Ni1625     Ni  0.96445159  0.09245403  0.66943591     1.34900
C1626       C  0.92379252  0.15636188  0.60638908     0.84500
O1627       O  0.00105154  0.11044026  0.60790463    -0.79600
O1628       O  0.99719541  0.09104264  0.64992104    -0.89900
C1629       C  0.96146346  0.10724301  0.54721508     0.84100
O1630       O  0.93501868  0.05173263  0.65738840    -0.68100
O1631       O  0.86497500  0.08976450  0.58312830    -0.87300
C1632       C  0.93390343  0.03949330  0.63399745     0.84900
C1633       C  0.51172721  0.10173188  0.62750855     1.06500
H1634       H  0.90381525  0.06572048  0.59742954     0.38300
O1635       O  0.91632730  0.08797066  0.59909062    -1.10000
O1636       O  0.92242009  0.14115905  0.62783379    -0.66700
Ni1637     Ni  0.91075262  0.09884928  0.63541276     1.26300
O1638       O  0.94522378  0.05581586  0.61221973    -0.66900
O1639       O  0.86799409  0.08657742  0.62924847    -0.79200
C1640       C  0.91546390  0.10239240  0.69420934     0.84300
O1641       O  0.90565573  0.10865235  0.67243889    -0.66400
Ni1642     Ni  0.90560214  0.10430706  0.56828226     1.27400
Ni1643     Ni  0.95853019  0.09894329  0.60319205     1.26100
H1644       H  0.96651020  0.13309255  0.64169486     0.38800
O1645       O  0.58299948  0.15734211  0.18989027    -0.81100
O1646       O  0.58553523  0.12774629  0.06268472    -0.65800
O1647       O  0.60640536  0.15602801  0.13747014    -1.12400
C1648       C  0.58269361  0.23257814  0.10535971     1.05700
O1649       O  0.61668766  0.17522182  0.04818430    -0.79000
O1650       O  0.64048512  0.22684363  0.07942358    -0.66600
Ni1651     Ni  0.58649445  0.12773791  0.16691736     1.34900
C1652       C  0.65387078  0.23180012  0.10273632     0.84500
O1653       O  0.60469471  0.10812776  0.10496112    -0.79600
O1654       O  0.58867541  0.09465907  0.14841540    -0.89900
C1655       C  0.60367226  0.14607318  0.04461935     0.84100
O1656       O  0.54573309  0.11377851  0.15332751    -0.68100
O1657       O  0.58460205  0.22349804  0.08112831    -0.87300
C1658       C  0.53461284  0.10463298  0.12924895     0.84900
C1659       C  0.59751876  0.08978560  0.12523700     1.06500
H1660       H  0.56254822  0.16298813  0.09639575     0.38300
O1661       O  0.58482163  0.17221268  0.09718477    -1.10000
O1662       O  0.64018281  0.21696831  0.12434372    -0.66700
Ni1663     Ni  0.59750910  0.18915452  0.13337371     1.26300
O1664       O  0.55167259  0.11110843  0.10797656    -0.66900
O1665       O  0.58797642  0.22183472  0.12744591    -0.79200
C1666       C  0.59910264  0.18662043  0.19174788     0.84300
O1667       O  0.60964567  0.20379275  0.17065962    -0.66400
Ni1668     Ni  0.60002111  0.19837630  0.06598169     1.27400
Ni1669     Ni  0.59480901  0.14022810  0.10050596     1.26100
H1670       H  0.62847877  0.16442949  0.13960051     0.38800
O1671       O  0.65625521  0.07713891  0.80718157    -0.81100
O1672       O  0.62461004  0.08390169  0.93305517    -0.65800
O1673       O  0.65353580  0.10154908  0.85875012    -1.12400
C1674       C  0.72835617  0.07598920  0.89294633     1.05700
O1675       O  0.67255214  0.11242910  0.94870694    -0.79000
O1676       O  0.72462818  0.13390442  0.91887485    -0.66600
Ni1677     Ni  0.62590485  0.08109218  0.82876178     1.34900
C1678       C  0.72930286  0.14757221  0.89586012     0.84500
O1679       O  0.60624810  0.10250720  0.88908441    -0.79600
O1680       O  0.59261024  0.08404372  0.84597340    -0.89900
C1681       C  0.64356800  0.10192143  0.95120321     0.84100
O1682       O  0.61151770  0.04073321  0.84313988    -0.68100
O1683       O  0.71814989  0.07651562  0.91701909    -0.87300
C1684       C  0.60104938  0.03035144  0.86697891     0.84900
C1685       C  0.58798488  0.09462104  0.86838475     1.06500
H1686       H  0.65825511  0.05738671  0.90024164     0.38300
O1687       O  0.66820525  0.07970227  0.89984606    -1.10000
O1688       O  0.71348403  0.13456786  0.87432889    -0.66700
Ni1689     Ni  0.68610737  0.09224837  0.86427666     1.26300
O1690       O  0.60687350  0.04813480  0.88790326    -0.66900
O1691       O  0.71850080  0.08255128  0.87102308    -0.79200
C1692       C  0.68558042  0.09406612  0.80630284     0.84300
O1693       O  0.70199496  0.10487170  0.82790904    -0.66400
Ni1694     Ni  0.69428644  0.09387126  0.93157387     1.27400
Ni1695     Ni  0.63725266  0.09124545  0.89529046     1.26100
H1696       H  0.66220942  0.12356627  0.85624852     0.38800
O1697       O  0.57909732  0.42071673  0.19130764    -0.81100
O1698       O  0.53879416  0.40887743  0.06574909    -0.65800
O1699       O  0.55098665  0.39356386  0.14063167    -1.12400
C1700       C  0.65110091  0.41912617  0.10623253     1.05700
O1701       O  0.55769198  0.37967674  0.05117728    -0.79000
O1702       O  0.58937176  0.35979812  0.08185534    -0.66600
Ni1703     Ni  0.54431743  0.41547308  0.16957615     1.34900
C1704       C  0.58088316  0.34670935  0.10515672     0.84500
O1705       O  0.50215891  0.39127345  0.10967340    -0.79600
O1706       O  0.50768209  0.41161262  0.15202906    -0.89900
C1707       C  0.53965252  0.39060340  0.04797043     0.84100
O1708       O  0.57019720  0.45515715  0.15396097    -0.68100
O1709       O  0.63972105  0.41748290  0.08220614    -0.87300
C1710       C  0.56987786  0.46440768  0.12967401     0.84900
C1711       C  0.99203206  0.39992806  0.12991734     1.06500
H1712       H  0.59915891  0.43635272  0.09825280     0.38300
O1713       O  0.58686318  0.41405840  0.09922477    -1.10000
O1714       O  0.57829382  0.36018942  0.12643815    -0.66700
Ni1715     Ni  0.59290544  0.40288376  0.13524067     1.26300
O1716       O  0.55713038  0.44572374  0.10948933    -0.66900
O1717       O  0.63512941  0.41284485  0.12840204    -0.79200
C1718       C  0.59190306  0.40424755  0.19322641     0.84300
O1719       O  0.59683195  0.39197566  0.17229043    -0.66400
Ni1720     Ni  0.59831709  0.39914835  0.06795538     1.27400
Ni1721     Ni  0.54442811  0.40250286  0.10365766     1.26100
H1722       H  0.53773716  0.37165840  0.14383989     0.38800
O1723       O  0.91268228  0.33608492  0.81297081    -0.81100
O1724       O  0.95466543  0.36596782  0.93677333    -0.65800
O1725       O  0.94392768  0.33810548  0.86176154    -1.12400
C1726       C  0.84611579  0.26013556  0.89616571     1.05700
O1727       O  0.93996585  0.31840224  0.95044052    -0.79000
O1728       O  0.91176325  0.26667845  0.91931270    -0.66600
Ni1729     Ni  0.95017863  0.36517970  0.83186975     1.34900
C1730       C  0.91928271  0.26244821  0.89534978     0.84500
O1731       O  0.99083198  0.38759053  0.89253408    -0.79600
O1732       O  0.98844925  0.39713725  0.84756958    -0.89900
C1733       C  0.95551856  0.34756170  0.95430004     0.84100
O1734       O  0.92801226  0.38329041  0.84723924    -0.68100
O1735       O  0.85810498  0.26863399  0.92022610    -0.87300
C1736       C  0.92479543  0.39030687  0.87172180     0.84900
C1737       C  0.50213986  0.40401865  0.87100572     1.06500
H1738       H  0.89474074  0.32935122  0.90504779     0.38300
O1739       O  0.90832167  0.32082041  0.90333777    -1.10000
O1740       O  0.91903174  0.27745282  0.87438757    -0.66700
Ni1741     Ni  0.90271805  0.30427503  0.86695108     1.26300
O1742       O  0.93361729  0.38160838  0.89284520    -0.66900
O1743       O  0.86124510  0.27113737  0.87380135    -0.79200
C1744       C  0.90254777  0.30741536  0.80936428     0.84300
O1745       O  0.89905155  0.28991061  0.82954190    -0.66400
Ni1746     Ni  0.89938590  0.29437381  0.93411571     1.27400
Ni1747     Ni  0.94969992  0.35394987  0.89869470     1.26100
H1748       H  0.95789725  0.33016615  0.85904717     0.38800
O1749       O  0.84179093  0.42477742  0.19257364    -0.81100
O1750       O  0.87062129  0.45818107  0.06478752    -0.65800
O1751       O  0.84300473  0.44825083  0.13976025    -1.12400
C1752       C  0.76685123  0.34850802  0.10542516     1.05700
O1753       O  0.82269254  0.44119030  0.05034253    -0.79000
O1754       O  0.77149895  0.41253235  0.08140424    -0.66600
Ni1755     Ni  0.87199952  0.45560505  0.16864858     1.34900
C1756       C  0.76672740  0.42018913  0.10513549     0.84500
O1757       O  0.89001587  0.49559574  0.10854876    -0.79600
O1758       O  0.90601462  0.48916206  0.14974991    -0.89900
C1759       C  0.85178133  0.45812640  0.04705767     0.84100
O1760       O  0.88199483  0.42614715  0.15417738    -0.68100
O1761       O  0.77525848  0.35999636  0.08134626    -0.87300
C1762       C  0.89266862  0.42618500  0.13036022     0.84900
C1763       C  0.90950783  0.00515143  0.12827271     1.06500
H1764       H  0.83621900  0.39877474  0.09684703     0.38300
O1765       O  0.82679859  0.41159031  0.09827208    -1.10000
O1766       O  0.78188387  0.42078547  0.12649369    -0.66700
Ni1767     Ni  0.81022483  0.40619335  0.13451607     1.26300
O1768       O  0.88814104  0.43946010  0.10976974    -0.66900
O1769       O  0.77803258  0.36413539  0.12769474    -0.79200
C1770       C  0.81241781  0.40879012  0.19319741     0.84300
O1771       O  0.79557423  0.40194698  0.17169675    -0.66400
Ni1772     Ni  0.79999601  0.40100256  0.06718307     1.27400
Ni1773     Ni  0.85852013  0.45354012  0.10277186     1.26100
H1774       H  0.83451172  0.46172235  0.14266783     0.38800
O1775       O  0.91129350  0.06901118  0.80591845    -0.81100
O1776       O  0.90979012  0.03787623  0.93364250    -0.65800
O1777       O  0.89013306  0.04653210  0.85897355    -1.12400
C1778       C  0.91756240  0.14759955  0.89245833     1.05700
O1779       O  0.87944051  0.05539264  0.94805490    -0.79000
O1780       O  0.85769169  0.08534107  0.91751885    -0.66600
Ni1781     Ni  0.91054983  0.03804874  0.82984476     1.34900
C1782       C  0.84406731  0.07656132  0.89430023     0.84500
O1783       O  0.88980047  0.99953713  0.89069134    -0.79600
O1784       O  0.91056023  0.00426460  0.84897019    -0.89900
C1785       C  0.89191587  0.03878789  0.95173987     0.84100
O1786       O  0.95088766  0.06692989  0.84344690    -0.68100
O1787       O  0.91514053  0.13655988  0.91664388    -0.87300
C1788       C  0.96182279  0.06721763  0.86727982     0.84900
C1789       C  0.89902754  0.48926795  0.87111314     1.06500
H1790       H  0.93472593  0.09641184  0.90073264     0.38300
O1791       O  0.91240273  0.08392844  0.89981986    -1.10000
O1792       O  0.85762369  0.07496298  0.87268437    -0.66700
Ni1793     Ni  0.90030952  0.08890592  0.86388766     1.26300
O1794       O  0.94433094  0.05480131  0.88811570    -0.66900
O1795       O  0.91125240  0.13132578  0.87035642    -0.79200
C1796       C  0.89849465  0.08556416  0.80552693     0.84300
O1797       O  0.88911733  0.09281883  0.82704998    -0.66400
Ni1798     Ni  0.89773567  0.09558262  0.93109372     1.27400
Ni1799     Ni  0.90118166  0.04176432  0.89582591     1.26100
H1800       H  0.86806106  0.03332545  0.85649294     0.38800
C1801       C  0.86304792  0.47945444  0.02315131    -0.05700
C1802       C  0.89179439  0.48815993  0.01087257    -0.33100
C1803       C  0.90163196  0.00726774  0.98743250     0.36100
C1804       C  0.88297255  0.01859715  0.97640253    -0.06100
C1805       C  0.85466150  0.01039721  0.98918418    -0.33000
C1806       C  0.84466545  0.49111375  0.01214907     0.36000
H1807       H  0.90637823  0.47967431  0.01912338     0.16400
O1808       O  0.92983531  0.01541273  0.97602153    -0.60500
H1809       H  0.83982559  0.01870996  0.98116816     0.16400
O1810       O  0.81681192  0.48401083  0.02378458    -0.60600
H1811       H  0.82201248  0.49972048  0.03856627     0.43400
H1812       H  0.92577065  0.99825902  0.96313022     0.43300
C1813       C  0.89836084  0.45963673  0.87420825    -0.05700
C1814       C  0.91058966  0.45390992  0.89814869    -0.33100
C1815       C  0.91742997  0.42982784  0.89863328     0.36100
C1816       C  0.91156850  0.41093660  0.87499121    -0.06100
C1817       C  0.89619957  0.41483089  0.85228826    -0.33000
C1818       C  0.88998921  0.43914759  0.85164240     0.36000
H1819       H  0.91705038  0.46953328  0.91569745     0.16400
O1820       O  0.93152610  0.42629292  0.92160263    -0.60500
H1821       H  0.89054016  0.40007869  0.83418130     0.16400
O1822       O  0.87641108  0.44323637  0.82855200    -0.60600
H1823       H  0.89317949  0.45274331  0.81468141     0.43400
H1824       H  0.95403950  0.44047841  0.91887921     0.43300
C1825       C  0.92609767  0.18058280  0.89040559    -0.05700
C1826       C  0.91726095  0.19081695  0.86693263    -0.33100
C1827       C  0.91769462  0.21909931  0.86729790     0.36100
C1828       C  0.92666395  0.23740657  0.89157030    -0.06100
C1829       C  0.93870915  0.22879641  0.91384953    -0.33000
C1830       C  0.93899090  0.20092977  0.91323457     0.36000
H1831       H  0.90778357  0.17591153  0.84894964     0.16400
O1832       O  0.90609644  0.22684758  0.84491393    -0.60500
H1833       H  0.94659629  0.24302646  0.93236343     0.16400
O1834       O  0.95021883  0.19304363  0.93580032    -0.60600
H1835       H  0.97183844  0.19902540  0.93100752     0.43400
H1836       H  0.92418736  0.23893485  0.83279061     0.43300
C1837       C  0.51801783  0.37995782  0.02408650    -0.05700
C1838       C  0.00659309  0.39855958  0.01345035    -0.33100
C1839       C  0.98623683  0.38857604  0.99067347     0.36100
C1840       C  0.97678076  0.35945979  0.97840749    -0.06100
C1841       C  0.48779565  0.34077040  0.98946436    -0.33000
C1842       C  0.50829718  0.35078242  0.01182801     0.36000
H1843       H  0.01364034  0.42097866  0.02266145     0.16400
O1844       O  0.97551280  0.40726038  0.98083938    -0.60500
H1845       H  0.48076697  0.31822161  0.98053591     0.16400
O1846       O  0.51767445  0.33120212  0.02222207    -0.60600
H1847       H  0.53447891  0.33343397  0.00982737     0.43400
H1848       H  0.95631055  0.40133067  0.99136404     0.43300
C1849       C  0.96168751  0.39850291  0.12770898    -0.05700
C1850       C  0.95306661  0.40711932  0.10311441    -0.33100
C1851       C  0.92879235  0.41381932  0.10284556     0.36100
C1852       C  0.91299273  0.41224492  0.12755409    -0.06100
C1853       C  0.91947733  0.40009598  0.15121097    -0.33000
C1854       C  0.94344036  0.39324146  0.15138852     0.36000
H1855       H  0.96653729  0.41081198  0.08454585     0.16400
O1856       O  0.92224186  0.42383370  0.07878510    -0.60500
H1857       H  0.90712942  0.39747529  0.17029286     0.16400
O1858       O  0.95000191  0.38309841  0.17539470    -0.60600
H1859       H  0.93903612  0.36021194  0.17361711     0.43400
H1860       H  0.90642157  0.40474505  0.06925202     0.43300
C1861       C  0.68403510  0.42669329  0.10792696    -0.05700
C1862       C  0.69536702  0.42036219  0.13222102    -0.33100
C1863       C  0.72359157  0.42046464  0.13233471     0.36100
C1864       C  0.74105350  0.42698895  0.10785432    -0.06100
C1865       C  0.73118193  0.43619989  0.08441988    -0.33000
C1866       C  0.70325190  0.43642185  0.08434816     0.36000
H1867       H  0.68143938  0.41331337  0.15075831     0.16400
O1868       O  0.73272523  0.41212206  0.15598509    -0.60500
H1869       H  0.74456107  0.44203688  0.06556424     0.16400
O1870       O  0.69427159  0.44453148  0.06048021    -0.60600
H1871       H  0.70241535  0.46713158  0.06221158     0.43400
H1872       H  0.72315409  0.38928126  0.15480548     0.43300
C1873       C  0.75564514  0.17949701  0.89380533    -0.05700
C1874       C  0.76533304  0.19867578  0.91728348    -0.33100
C1875       C  0.79363123  0.22643059  0.91758501     0.36100
C1876       C  0.81331041  0.23499707  0.89437594    -0.06100
C1877       C  0.80233340  0.21711560  0.87011264    -0.33000
C1878       C  0.77367832  0.18968060  0.86962717     0.36000
H1879       H  0.75141092  0.19158851  0.93583837     0.16400
O1880       O  0.80234022  0.24424298  0.94115017    -0.60500
H1881       H  0.81676323  0.22332311  0.85190413     0.16400
O1882       O  0.76507726  0.17157046  0.84624410    -0.60600
H1883       H  0.75349170  0.17892769  0.83485296     0.43400
H1884       H  0.79546664  0.25957326  0.93825345     0.43300
C1885       C  0.53172446  0.43377055  0.87293621    -0.05700
C1886       C  0.55037638  0.44485192  0.84940627    -0.33100
C1887       C  0.57418023  0.47566818  0.84777290     0.36100
C1888       C  0.57986791  0.99635396  0.87003188    -0.06100
C1889       C  0.56276235  0.48453767  0.89447707    -0.33000
C1890       C  0.53893226  0.45353672  0.89607304     0.36000
H1891       H  0.54550762  0.42989609  0.83154497     0.16400
O1892       O  0.59111806  0.98539014  0.82392346    -0.60500
H1893       H  0.56664872  0.49972576  0.91195342     0.16400
O1894       O  0.52097046  0.44377744  0.91932981    -0.60600
H1895       H  0.53087787  0.43512378  0.93137402     0.43400
H1896       H  0.57797388  0.98889351  0.81066134     0.43300
C1897       C  0.81138983  0.06953376  0.89235194    -0.05700
C1898       C  0.79980241  0.07418081  0.86740724    -0.33100
C1899       C  0.77149816  0.07396474  0.86657863     0.36100
C1900       C  0.75432528  0.06926743  0.89107573    -0.06100
C1901       C  0.76457295  0.06154405  0.91528560    -0.33000
C1902       C  0.79261422  0.06153881  0.91603724     0.36000
H1903       H  0.81357374  0.07989756  0.84880378     0.16400
O1904       O  0.76213429  0.08056429  0.84213325    -0.60500
H1905       H  0.75157600  0.05688266  0.93426898     0.16400
O1906       O  0.80212467  0.05512896  0.94050651    -0.60600
H1907       H  0.79268977  0.03228348  0.94071258     0.43400
H1908       H  0.74961845  0.06026064  0.83273372     0.43300
C1909       C  0.99602100  0.08068233  0.87015443    -0.05700
C1910       C  0.51496559  0.09418060  0.84696842    -0.33100
C1911       C  0.54594376  0.10144362  0.84700561     0.36100
C1912       C  0.55875079  0.09536251  0.87047218    -0.06100
C1913       C  0.54102613  0.08501764  0.89460912    -0.33000
C1914       C  0.50983575  0.07749131  0.89457772     0.36000
H1915       H  0.50541055  0.09772769  0.82812321     0.16400
O1916       O  0.56304567  0.11293429  0.82341999    -0.60500
H1917       H  0.55060184  0.08047773  0.91294808     0.16400
O1918       O  0.99284352  0.06568095  0.91816409    -0.60600
H1919       H  0.98581293  0.04322936  0.91768106     0.43400
H1920       H  0.57449231  0.13573969  0.82598498     0.43300
C1921       C  0.50051017  0.08400931  0.12654860    -0.05700
C1922       C  0.98222733  0.07714837  0.15038234    -0.33100
C1923       C  0.95159407  0.05303567  0.15042850     0.36100
C1924       C  0.93844102  0.03518745  0.12637705    -0.06100
C1925       C  0.95532563  0.04402608  0.10172041    -0.33000
C1926       C  0.98620176  0.06833566  0.10162374     0.36000
H1927       H  0.99211423  0.08933327  0.16963734     0.16400
O1928       O  0.93527090  0.04588480  0.17464275    -0.60500
H1929       H  0.94537484  0.03069705  0.08296360     0.16400
O1930       O  0.50264839  0.07487178  0.07753603    -0.60600
H1931       H  0.50001429  0.09128514  0.06862664     0.43400
H1932       H  0.92221257  0.05567013  0.17322264     0.43300
C1933       C  0.74168368  0.31564215  0.10695184    -0.05700
C1934       C  0.73258488  0.29760345  0.08264655    -0.33100
C1935       C  0.70511358  0.26910153  0.08146491     0.36100
C1936       C  0.68624326  0.25769112  0.10501210    -0.06100
C1937       C  0.69687334  0.27411901  0.13007872    -0.33000
C1938       C  0.72428765  0.30288919  0.13120112     0.36000
H1939       H  0.74596698  0.30625312  0.06390620     0.16400
O1940       O  0.69656705  0.25292733  0.05695675    -0.60500
H1941       H  0.68280784  0.26576749  0.14848325     0.16400
O1942       O  0.73228864  0.31928791  0.15555910    -0.60600
H1943       H  0.74619798  0.31340819  0.16513509     0.43400
H1944       H  0.68864860  0.26374296  0.04520472     0.43300
C1945       C  0.57526894  0.31475635  0.10755613    -0.05700
C1946       C  0.56506682  0.29531537  0.08427321    -0.33100
C1947       C  0.56486788  0.26722043  0.08409598     0.36100
C1948       C  0.57577423  0.25828340  0.10734137    -0.06100
C1949       C  0.58371063  0.27663464  0.13140930    -0.33000
C1950       C  0.58355324  0.30468475  0.13164046     0.36000
H1951       H  0.55811682  0.30239797  0.06571868     0.16400
O1952       O  0.55530358  0.24944765  0.06050871    -0.60500
H1953       H  0.59192929  0.27027850  0.14959516     0.16400
O1954       O  0.59352735  0.32296241  0.15492076    -0.60600
H1955       H  0.61617441  0.33665064  0.15248300     0.43400
H1956       H  0.53271302  0.23538909  0.06285247     0.43300
C1957       C  0.59754985  0.06041995  0.12208921    -0.05700
C1958       C  0.60943520  0.05073006  0.14365704    -0.33100
C1959       C  0.60265586  0.01999081  0.14525271     0.36100
C1960       C  0.58319136  0.49814712  0.12521956    -0.06100
C1961       C  0.57371779  0.00862492  0.10223760    -0.33000
C1962       C  0.58089187  0.03957981  0.10052909     0.36000
H1963       H  0.62273470  0.06672237  0.16014741     0.16400
O1964       O  0.61457249  0.51143002  0.16687023    -0.60500
H1965       H  0.55898131  0.99242971  0.08644444     0.16400
O1966       O  0.56863240  0.04830447  0.07933330    -0.60600
H1967       H  0.58386063  0.05440217  0.06415003     0.43400
H1968       H  0.60173510  0.50988931  0.18306188     0.43300
C1969       C  0.61254230  0.13409060  0.02033908    -0.05700
C1970       C  0.64218573  0.15251420  0.00922873    -0.33100
C1971       C  0.65229184  0.14225607  0.98686731     0.36100
C1972       C  0.63258671  0.11297852  0.97475241    -0.06100
C1973       C  0.60256531  0.09468739  0.98540130    -0.33000
C1974       C  0.59257742  0.10493334  0.00819402     0.36000
H1975       H  0.65798424  0.17497837  0.01820538     0.16400
O1976       O  0.68159932  0.16127096  0.97699594    -0.60500
H1977       H  0.58700734  0.07221739  0.97633699     0.16400
O1978       O  0.56332179  0.08635117  0.01830453    -0.60600
H1979       H  0.55014426  0.09323340  0.00884022     0.43400
H1980       H  0.67909203  0.17377503  0.96242516     0.43300
C1981       C  0.90386820  0.10493333  0.72126036    -0.05700
C1982       C  0.92456661  0.12801291  0.73951854    -0.33100
C1983       C  0.92041067  0.12407393  0.76805998     0.36100
C1984       C  0.89548364  0.09667797  0.77840914    -0.06100
C1985       C  0.87286174  0.07538163  0.76014013    -0.33000
C1986       C  0.87685662  0.07946391  0.73158219     0.36000
H1987       H  0.94570265  0.14744133  0.73174081     0.16400
O1988       O  0.94314823  0.14483811  0.78549630    -0.60500
H1989       H  0.85389411  0.05392892  0.76793560     0.16400
O1990       O  0.85677465  0.05620514  0.71417462    -0.60600
H1991       H  0.84375708  0.06394221  0.70581391     0.43400
H1992       H  0.93500388  0.15794011  0.79288817     0.43300
C1993       C  0.98173881  0.11585586  0.52261043    -0.05700
C1994       C  0.99103954  0.14461149  0.51029467    -0.33100
C1995       C  0.51014669  0.15424895  0.48719406     0.36100
C1996       C  0.52053594  0.13504773  0.47560107    -0.06100
C1997       C  0.51079805  0.10592524  0.48746991    -0.33000
C1998       C  0.99187766  0.09644914  0.51105407     0.36000
H1999       H  0.98367646  0.16004414  0.51875578     0.16400
O2000       O  0.51829269  0.18254041  0.47602109    -0.60500
H2001       H  0.51830861  0.09072413  0.47876872     0.16400
O2002       O  0.98271526  0.06788904  0.52206940    -0.60600
H2003       H  0.49985872  0.07108411  0.53463642     0.43400
H2004       H  0.00265186  0.17817522  0.46138045     0.43300
C2005       C  0.60497908  0.19960986  0.21995394    -0.05700
C2006       C  0.62673917  0.19651820  0.23606999    -0.33100
C2007       C  0.62462076  0.19534197  0.26491762     0.36100
C2008       C  0.60060461  0.19744867  0.27804496    -0.06100
C2009       C  0.58097131  0.20401825  0.26215947    -0.33000
C2010       C  0.58290933  0.20488149  0.23318685     0.36000
H2011       H  0.64338522  0.19170435  0.22617878     0.16400
O2012       O  0.64377145  0.18840013  0.27984978    -0.60500
H2013       H  0.56207185  0.20521714  0.27196853     0.16400
O2014       O  0.56125976  0.20780317  0.21794932    -0.60600
H2015       H  0.54344253  0.18646375  0.21590585     0.43400
H2016       H  0.66039609  0.20857095  0.28711806     0.43300
C2017       C  0.70338374  0.10100454  0.72097414    -0.05700
C2018       C  0.70246878  0.12526401  0.73483531    -0.33100
C2019       C  0.70080135  0.12538774  0.76369772     0.36100
C2020       C  0.69991699  0.10097089  0.77888366    -0.06100
C2021       C  0.70432092  0.07863960  0.76523742    -0.33000
C2022       C  0.70637118  0.07873633  0.73637223     0.36000
H2023       H  0.69971191  0.14226739  0.72321643     0.16400
O2024       O  0.69678562  0.14764309  0.77669115    -0.60500
H2025       H  0.70317892  0.05947942  0.77669125     0.16400
O2026       O  0.70676477  0.05448596  0.72329067    -0.60600
H2027       H  0.72888931  0.06215431  0.71907866     0.43400
H2028       H  0.67430582  0.14035278  0.77512075     0.43300
C2029       C  0.76243305  0.07518896  0.60754832    -0.05700
C2030       C  0.77951852  0.08223545  0.63231045    -0.33100
C2031       C  0.80835437  0.08360914  0.63316737     0.36100
C2032       C  0.82028705  0.07740251  0.60904546    -0.06100
C2033       C  0.80178606  0.06772878  0.58505061    -0.33000
C2034       C  0.77322177  0.06656614  0.58416824     0.36000
H2035       H  0.77158839  0.08881567  0.65056805     0.16400
O2036       O  0.82536121  0.09286462  0.65719603    -0.60500
H2037       H  0.81004561  0.06223503  0.56638412     0.16400
O2038       O  0.75673081  0.05835315  0.55985129    -0.60600
H2039       H  0.74174560  0.03589080  0.56150931     0.43400
H2040       H  0.83738038  0.11580476  0.65639296     0.43300
C2041       C  0.58762804  0.08519623  0.62543419    -0.05700
C2042       C  0.58493747  0.10252636  0.64715583    -0.33100
C2043       C  0.56194214  0.11068965  0.64676045     0.36100
C2044       C  0.54113369  0.10176886  0.62436034    -0.06100
C2045       C  0.54572071  0.08745541  0.60128925    -0.33000
C2046       C  0.56869339  0.07897824  0.60172022     0.36000
H2047       H  0.59964950  0.10843894  0.66530634     0.16400
O2048       O  0.55869279  0.12566873  0.66923193    -0.60500
H2049       H  0.52988462  0.08054146  0.58386455     0.16400
O2050       O  0.57109328  0.06307320  0.57956906    -0.60600
H2051       H  0.55578661  0.04099806  0.58301078     0.43400
H2052       H  0.57128521  0.14803247  0.66495356     0.43300
C2053       C  0.62056945  0.47781641  0.47780195    -0.05700
C2054       C  0.60098895  0.48788792  0.48875782    -0.33100
C2055       C  0.61010586  0.00768523  0.51185924     0.36100
C2056       C  0.63956292  0.01841237  0.52391358    -0.06100
C2057       C  0.65927803  0.00870634  0.51262395    -0.33000
C2058       C  0.65004102  0.48859826  0.48992768     0.36000
H2059       H  0.57838392  0.48011362  0.47959486     0.16400
O2060       O  0.59053020  0.01729250  0.52180716    -0.60500
H2061       H  0.68201623  0.01657648  0.52155382     0.16400
O2062       O  0.67029489  0.48003932  0.47956994    -0.60600
H2063       H  0.68194483  0.49533583  0.46496294     0.43400
H2064       H  0.57587601  0.00034654  0.53395940     0.43300
C2065       C  0.60079623  0.03490801  0.37528358    -0.05700
C2066       C  0.61047319  0.05528704  0.35291953    -0.33100
C2067       C  0.60348368  0.07914523  0.35161269     0.36100
C2068       C  0.58596798  0.08266633  0.37278604    -0.06100
C2069       C  0.57877791  0.06392970  0.39637985    -0.33000
C2070       C  0.58626290  0.04031946  0.39780269     0.36000
H2071       H  0.62214886  0.05170700  0.33564968     0.16400
O2072       O  0.61319274  0.09831572  0.32913030    -0.60500
H2073       H  0.56561474  0.06623999  0.41306140     0.16400
O2074       O  0.57631211  0.52067485  0.41993807    -0.60600
H2075       H  0.59378047  0.52982418  0.43334122     0.43400
H2076       H  0.59877568  0.08611740  0.31391601     0.43300
C2077       C  0.57765625  0.31468873  0.39053970    -0.05700
C2078       C  0.56440389  0.29459606  0.41305492    -0.33100
C2079       C  0.56293394  0.26586577  0.41366432     0.36100
C2080       C  0.57455245  0.25652115  0.39143972    -0.06100
C2081       C  0.58551255  0.27535037  0.36798936    -0.33000
C2082       C  0.58748656  0.30437925  0.36750648     0.36000
H2083       H  0.55633139  0.30169999  0.43087875     0.16400
O2084       O  0.55139676  0.24771426  0.43665080    -0.60500
H2085       H  0.59477599  0.26861069  0.35078222     0.16400
O2086       O  0.60092688  0.32316716  0.34517310    -0.60600
H2087       H  0.62350219  0.33446229  0.34922242     0.43400
H2088       H  0.52901983  0.23389626  0.43269746     0.43300
C2089       C  0.60327505  0.40206178  0.27917042    -0.05700
C2090       C  0.58189056  0.37486358  0.26531771    -0.33100
C2091       C  0.58086090  0.37371585  0.23635115     0.36100
C2092       C  0.60101451  0.40020135  0.22110306    -0.06100
C2093       C  0.62415596  0.42631614  0.23499049    -0.33000
C2094       C  0.62550471  0.42728404  0.26385979     0.36000
H2095       H  0.56425785  0.35556053  0.27688315     0.16400
O2096       O  0.55744977  0.34820398  0.22331881    -0.60500
H2097       H  0.63933371  0.44704886  0.22353027     0.16400
O2098       O  0.64605822  0.45441993  0.27690827    -0.60600
H2099       H  0.66444773  0.45234917  0.28101325     0.43400
H2100       H  0.56716455  0.33622195  0.21666422     0.43300
C2101       C  0.89526509  0.29870859  0.72289004    -0.05700
C2102       C  0.91828905  0.29547638  0.73663338    -0.33100
C2103       C  0.91821243  0.29347567  0.76550108     0.36100
C2104       C  0.89537907  0.29556447  0.78086544    -0.06100
C2105       C  0.87077843  0.29581562  0.76695522    -0.33000
C2106       C  0.87039790  0.29695804  0.73805669     0.36000
H2107       H  0.93777277  0.29724492  0.72520306     0.16400
O2108       O  0.94283728  0.29385088  0.77861755    -0.60500
H2109       H  0.85338501  0.29799675  0.77855263     0.16400
O2110       O  0.84784349  0.30047814  0.72509320    -0.60600
H2111       H  0.83036085  0.27911972  0.72215421     0.43400
H2112       H  0.93587953  0.27182423  0.78248256     0.43300
C2113       C  0.81254013  0.24301906  0.60804238    -0.05700
C2114       C  0.79508863  0.23169195  0.58364679    -0.33100
C2115       C  0.76764903  0.20315361  0.58305668     0.36100
C2116       C  0.75743906  0.18472030  0.60709275    -0.06100
C2117       C  0.77312604  0.19761448  0.63214796    -0.33000
C2118       C  0.80027681  0.22665257  0.63281379     0.36000
H2119       H  0.80352488  0.24434483  0.56452403     0.16400
O2120       O  0.75218998  0.19283092  0.55834928    -0.60500
H2121       H  0.76547234  0.18444008  0.65106609     0.16400
O2122       O  0.81607515  0.23726395  0.65732937    -0.60600
H2123       H  0.80825629  0.25028064  0.66557505     0.43400
H2124       H  0.73603873  0.19891313  0.55864774     0.43300
C2125       C  0.56372630  0.46366672  0.62824371    -0.05700
C2126       C  0.54491965  0.45689745  0.60465097    -0.33100
C2127       C  0.51372383  0.43325137  0.60504691     0.36100
C2128       C  0.00092006  0.41594608  0.62940269    -0.06100
C2129       C  0.52079653  0.42101326  0.65196939    -0.33000
C2130       C  0.55178061  0.44458058  0.65153585     0.36000
H2131       H  0.55373945  0.47140556  0.58655471     0.16400
O2132       O  0.49557726  0.42902103  0.58225625    -0.60500
H2133       H  0.01200018  0.40772731  0.67072907     0.16400
O2134       O  0.56977492  0.94994120  0.67468140    -0.60600
H2135       H  0.57965727  0.93709184  0.67211390     0.43400
H2136       H  0.49682354  0.41302850  0.57098301     0.43300
C2137       C  0.92344735  0.24207774  0.61100740    -0.05700
C2138       C  0.93770989  0.23608211  0.58864319    -0.33100
C2139       C  0.94043915  0.20950336  0.58788732     0.36100
C2140       C  0.92871371  0.18809282  0.60968391    -0.06100
C2141       C  0.91702577  0.19539529  0.63315613    -0.33000
C2142       C  0.91409097  0.22193453  0.63387821     0.36000
H2143       H  0.94576369  0.25145392  0.57106512     0.16400
O2144       O  0.95325809  0.20397195  0.56507208    -0.60500
H2145       H  0.90792135  0.17931476  0.65019779     0.16400
O2146       O  0.90032484  0.22680808  0.65635001    -0.60600
H2147       H  0.87776796  0.21520961  0.65224534     0.43400
H2148       H  0.97488444  0.21048161  0.57053264     0.43300
C2149       C  0.90616730  0.44227051  0.63151107    -0.05700
C2150       C  0.90432776  0.45616888  0.65613889    -0.33100
C2151       C  0.91144131  0.48705837  0.65695127     0.36100
C2152       C  0.92077389  0.00516410  0.63267473    -0.06100
C2153       C  0.92026677  0.49048996  0.60755568    -0.33000
C2154       C  0.91282069  0.45928347  0.60681297     0.36000
H2155       H  0.89861765  0.44337605  0.67530537     0.16400
O2156       O  0.91018132  0.99943988  0.68195232    -0.60500
H2157       H  0.92699656  0.50356032  0.58854920     0.16400
O2158       O  0.91471584  0.44658932  0.58222615    -0.60600
H2159       H  0.89352850  0.43675277  0.57419929     0.43400
H2160       H  0.93003713  0.00503722  0.69137776     0.43300
C2161       C  0.79924737  0.39302145  0.27853303    -0.05700
C2162       C  0.79933877  0.37028595  0.26139702    -0.33100
C2163       C  0.79923213  0.37283165  0.23259743     0.36100
C2164       C  0.79867973  0.39818041  0.22064149    -0.06100
C2165       C  0.79506227  0.41897649  0.23774936    -0.33000
C2166       C  0.79528206  0.41648257  0.26661071     0.36000
H2167       H  0.80285407  0.35236567  0.27030521     0.16400
O2168       O  0.80298918  0.35231595  0.21638144    -0.60500
H2169       H  0.79540483  0.43904340  0.22884030     0.16400
O2170       O  0.79581595  0.43936148  0.28283096    -0.60600
H2171       H  0.77372618  0.43270259  0.28615454     0.43400
H2172       H  0.82569228  0.36059848  0.21564873     0.43300
C2173       C  0.86468242  0.38432514  0.47912609    -0.05700
C2174       C  0.84299753  0.36010228  0.49569864    -0.33100
C2175       C  0.85228221  0.35049385  0.51902047     0.36100
C2176       C  0.88379308  0.36518730  0.52656316    -0.06100
C2177       C  0.90559709  0.38997954  0.51068443    -0.33000
C2178       C  0.89631498  0.39942765  0.48693563     0.36000
H2179       H  0.81856189  0.34802497  0.49040212     0.16400
O2180       O  0.83022954  0.32655465  0.53433619    -0.60500
H2181       H  0.92994531  0.40145855  0.51626276     0.16400
O2182       O  0.91841005  0.42294639  0.47133709    -0.60600
H2183       H  0.92039661  0.44220215  0.47934180     0.43400
H2184       H  0.82489403  0.33658682  0.54940076     0.43300
C2185       C  0.96406998  0.05744800  0.37289890    -0.05700
C2186       C  0.94501143  0.04559626  0.34948771    -0.33100
C2187       C  0.92037960  0.01514803  0.34875049     0.36100
C2188       C  0.91487094  0.49541253  0.37151742    -0.06100
C2189       C  0.93242967  0.00816902  0.39584183    -0.40200
C2190       C  0.95675262  0.03902387  0.39669969     0.36000
H2191       H  0.95006788  0.05967610  0.33115241     0.16400
O2192       O  0.90316508  0.00453281  0.32492326    -0.60500
H2193       H  0.92858879  0.49376792  0.41374765     0.16400
O2194       O  0.47511904  0.04983208  0.41987548    -0.60600
H2195       H  0.46512768  0.05855585  0.43174899     0.43400
H2196       H  0.88532247  0.00786232  0.32767788     0.43300
C2197       C  0.74088368  0.31198726  0.39241480    -0.05700
C2198       C  0.72209898  0.30362584  0.36864681    -0.33100
C2199       C  0.69332923  0.27621274  0.36772988     0.36100
C2200       C  0.68316100  0.25614230  0.39065108    -0.06100
C2201       C  0.70314851  0.26354021  0.41358210    -0.33000
C2202       C  0.73164546  0.29114122  0.41461830     0.36000
H2203       H  0.72868755  0.31943026  0.35141049     0.16400
O2204       O  0.67465440  0.27036960  0.34499360    -0.60500
H2205       H  0.69616280  0.24848098  0.43137449     0.16400
O2206       O  0.74968430  0.29810455  0.43794665    -0.60600
H2207       H  0.76269067  0.28846212  0.43495205     0.43400
H2208       H  0.66281429  0.28112925  0.34872808     0.43300
C2209       C  0.50277577  0.41641584  0.37644050    -0.05700
C2210       C  0.98171441  0.39618294  0.35652764    -0.33100
C2211       C  0.95067797  0.38850495  0.35691001     0.36100
C2212       C  0.94007946  0.40074228  0.37756567    -0.06100
C2213       C  0.96031062  0.41895001  0.39877123    -0.33000
C2214       C  0.99163103  0.42711521  0.39820969     0.36000
H2215       H  0.98962100  0.38742400  0.33978015     0.16400
O2216       O  0.93125032  0.37053356  0.33601848    -0.60500
H2217       H  0.95242603  0.42888508  0.41453478     0.16400
O2218       O  0.51143597  0.44732958  0.41781702    -0.60600
H2219       H  0.51778077  0.46825823  0.41063769     0.43400
H2220       H  0.92089981  0.34907737  0.34316982     0.43300
C2221       C  0.74326318  0.42278581  0.39035437    -0.05700
C2222       C  0.73642696  0.43593832  0.41310131    -0.33100
C2223       C  0.70884838  0.43677183  0.41404518     0.36100
C2224       C  0.68763471  0.42459297  0.39193342    -0.06100
C2225       C  0.69557556  0.41393581  0.36817585    -0.33000
C2226       C  0.72296869  0.41261335  0.36735258     0.36000
H2227       H  0.75179415  0.44425691  0.43087829     0.16400
O2228       O  0.70212846  0.44810663  0.43726823    -0.60500
H2229       H  0.67938587  0.40433025  0.35102995     0.16400
O2230       O  0.72842169  0.39926821  0.34481888    -0.60600
H2231       H  0.71798216  0.37680791  0.34892609     0.43400
H2232       H  0.71078720  0.47051351  0.43377606     0.43300
O2233       O  0.84254897  0.90980681  0.30691572    -0.81100
O2234       O  0.87198801  0.90982604  0.43551867    -0.65800
O2235       O  0.84363858  0.88972224  0.36065865    -1.12400
C2236       C  0.76876028  0.91579492  0.39278162     1.05700
O2237       O  0.82422341  0.87991322  0.45003376    -0.79000
O2238       O  0.77271128  0.85685458  0.41872511    -0.66600
Ni2239     Ni  0.87276463  0.91008425  0.33180243     1.34900
C2240       C  0.76733832  0.84394709  0.39513679     0.84500
O2241       O  0.89057523  0.88988872  0.39301094    -0.79600
O2242       O  0.90688303  0.91128263  0.35164671    -0.89900
C2243       C  0.85332868  0.89243966  0.45382050     0.84100
O2244       O  0.88294870  0.95003376  0.34519953    -0.68100
O2245       O  0.77711434  0.91332276  0.41715827    -0.87300
C2246       C  0.89398122  0.96129497  0.36889194     0.84900
C2247       C  0.91047241  0.89995465  0.37388003     1.06500
H2248       H  0.83801748  0.93432238  0.40224404     0.38300
O2249       O  0.82825042  0.91203289  0.40121142    -1.10000
O2250       O  0.78228948  0.85778192  0.37359511    -0.66700
Ni2251     Ni  0.81153970  0.90020237  0.36494871     1.26300
O2252       O  0.88937277  0.94411589  0.38990316    -0.66900
O2253       O  0.78008341  0.91109984  0.37086648    -0.79200
C2254       C  0.81324959  0.89753147  0.30620380     0.84300
O2255       O  0.79662444  0.88920622  0.32772825    -0.66400
Ni2256     Ni  0.80169351  0.89718383  0.43226334     1.27400
Ni2257     Ni  0.85941442  0.90096588  0.39766582     1.26100
H2258       H  0.83467463  0.86762479  0.35825163     0.38800
O2259       O  0.92029726  0.84136906  0.69350356    -0.81100
O2260       O  0.91225977  0.87254265  0.56822982    -0.65800
O2261       O  0.89463223  0.84512283  0.64292665    -1.12400
C2262       C  0.91591309  0.76736678  0.60876435     1.05700
O2263       O  0.88111799  0.82458302  0.55356142    -0.79000
O2264       O  0.85893678  0.77245138  0.58349843    -0.66600
Ni2265     Ni  0.91725673  0.87257865  0.67241826     1.34900
C2266       C  0.84502467  0.76876373  0.60629480     0.84500
O2267       O  0.89627926  0.89363456  0.61245269    -0.79600
O2268       O  0.91554285  0.90666278  0.65541213    -0.89900
C2269       C  0.89356091  0.85371157  0.55038539     0.84100
O2270       O  0.95701718  0.88529140  0.65709674    -0.68100
O2271       O  0.91586908  0.77766092  0.58463351    -0.87300
C2272       C  0.96688875  0.89530898  0.63302289     0.84900
C2273       C  0.90544247  0.91213714  0.63308892     1.06500
H2274       H  0.93643001  0.83708661  0.60128882     0.38300
O2275       O  0.91419347  0.82816575  0.60174636    -1.10000
O2276       O  0.85825536  0.78501378  0.62762735    -0.66700
Ni2277     Ni  0.90123264  0.81081477  0.63737448     1.26300
O2278       O  0.94862099  0.88956758  0.61256586    -0.66900
O2279       O  0.90884184  0.77702504  0.63057089    -0.79200
C2280       C  0.90157515  0.81239759  0.69517883     0.84300
O2281       O  0.88862654  0.79581763  0.67401304    -0.66400
Ni2282     Ni  0.89900726  0.80200779  0.57023809     1.27400
Ni2283     Ni  0.90496528  0.86073855  0.60617403     1.26100
H2284       H  0.87286320  0.83774464  0.64588160     0.38800
O2285       O  0.57869708  0.91799251  0.31096547    -0.81100
O2286       O  0.59184713  0.95723574  0.43612460    -0.65800
O2287       O  0.60716597  0.94695654  0.36082380    -1.12400
C2288       C  0.58452257  0.84723213  0.39306943     1.05700
O2289       O  0.62194944  0.93909427  0.45001343    -0.79000
O2290       O  0.64274016  0.90910069  0.41819115    -0.66600
Ni2291     Ni  0.58543098  0.95380753  0.33190547     1.34900
C2292       C  0.65565563  0.91844324  0.39493575     0.84500
O2293       O  0.60816556  0.99450107  0.39274608    -0.79600
O2294       O  0.59061572  0.99095302  0.34934767    -0.89900
C2295       C  0.61047722  0.95661056  0.45363536     0.84100
O2296       O  0.54545188  0.92951721  0.34756684    -0.68100
O2297       O  0.58566930  0.85774592  0.41743710    -0.87300
C2298       C  0.53633774  0.92884155  0.37212329     0.84900
C2299       C  0.60047151  0.50528725  0.37233866     1.06500
H2300       H  0.56528731  0.89765085  0.40268881     0.38300
O2301       O  0.58756935  0.91032641  0.40168527    -1.10000
O2302       O  0.64182036  0.92087228  0.37387274    -0.66700
Ni2303     Ni  0.59893324  0.90539124  0.36534496     1.26300
O2304       O  0.55485810  0.93934650  0.39262999    -0.66900
O2305       O  0.59025031  0.86361257  0.37129228    -0.79200
C2306       C  0.59712646  0.90761373  0.30766712     0.84300
O2307       O  0.61006577  0.90267509  0.32804243    -0.66400
Ni2308     Ni  0.60315133  0.89881929  0.43247722     1.27400
Ni2309     Ni  0.59817554  0.95255013  0.39801840     1.26100
H2310       H  0.62906344  0.96060876  0.35774968     0.38800
O2311       O  0.66108822  0.58072419  0.69086732    -0.81100
O2312       O  0.63144470  0.53929067  0.56556074    -0.65800
O2313       O  0.65930351  0.55168150  0.64061978    -1.12400
C2314       C  0.73317859  0.65136360  0.60553979     1.05700
O2315       O  0.67957937  0.55699494  0.55175450    -0.79000
O2316       O  0.73150049  0.58970210  0.58198111    -0.66600
Ni2317     Ni  0.63121085  0.54559630  0.66968810     1.34900
C2318       C  0.73609910  0.58096345  0.60519090     0.84500
O2319       O  0.61156248  0.50315227  0.60983508    -0.79600
O2320       O  0.59809404  0.50890284  0.65260267    -0.89900
C2321       C  0.65053387  0.53971619  0.54802889     0.84100
O2322       O  0.61711452  0.57119993  0.65388787    -0.68100
O2323       O  0.72347891  0.63958667  0.58157065    -0.87300
C2324       C  0.60763199  0.57123517  0.62954098     0.84900
C2325       C  0.59322726  0.99338848  0.63032147     1.06500
H2326       H  0.66497957  0.59966152  0.59786529     0.38300
O2327       O  0.67471640  0.58712006  0.59900760    -1.10000
O2328       O  0.72019114  0.57852786  0.62647458    -0.66700
Ni2329     Ni  0.69216943  0.59341115  0.63499547     1.26300
O2330       O  0.61358303  0.55872234  0.60925346    -0.66900
O2331       O  0.72421801  0.63555777  0.62783171    -0.79200
C2332       C  0.69029489  0.59285340  0.69295378     0.84300
O2333       O  0.70735986  0.59762387  0.67206813    -0.66400
Ni2334     Ni  0.70070135  0.59799407  0.56777448     1.27400
Ni2335     Ni  0.64339492  0.54502926  0.60362578     1.26100
H2336       H  0.66782930  0.53830590  0.64387010     0.38800
O2337       O  0.57655013  0.65441967  0.30692627    -0.81100
O2338       O  0.54108029  0.62652470  0.43395458    -0.65800
O2339       O  0.55072074  0.65305274  0.35881473    -1.12400
C2340       C  0.65075933  0.72997372  0.39262394     1.05700
O2341       O  0.55889626  0.67472404  0.44791781    -0.79000
O2342       O  0.58924910  0.72609857  0.41730478    -0.66600
Ni2343     Ni  0.54386009  0.62431818  0.32987021     1.34900
C2344       C  0.57995161  0.73011458  0.39409175     0.84500
O2345       O  0.50357949  0.60614995  0.39028415    -0.79600
O2346       O  0.50895402  0.59078180  0.34821810    -0.89900
C2347       C  0.54159931  0.64575882  0.45149845     0.84100
O2348       O  0.57186853  0.61266997  0.34491972    -0.68100
O2349       O  0.64036998  0.72009810  0.41678580    -0.87300
C2350       C  0.57212011  0.60285479  0.36901185     0.84900
C2351       C  0.99373742  0.58677536  0.37041802     1.06500
H2352       H  0.60053286  0.66029305  0.40083730     0.38300
O2353       O  0.58770244  0.66973663  0.39996022    -1.10000
O2354       O  0.57706221  0.71385447  0.37281838    -0.66700
Ni2355     Ni  0.59244828  0.68641632  0.36393134     1.26300
O2356       O  0.55939386  0.60825895  0.38949478    -0.66900
O2357       O  0.63430461  0.71949577  0.37063281    -0.79200
C2358       C  0.59038121  0.68381145  0.30563223     0.84300
O2359       O  0.59558171  0.70084701  0.32681313    -0.66400
Ni2360     Ni  0.59923859  0.69638082  0.43116141     1.27400
Ni2361     Ni  0.54556941  0.63798203  0.39586836     1.26100
H2362       H  0.53695453  0.66118550  0.35582942     0.38800
O2363       O  0.93502879  0.59319643  0.69424096    -0.81100
O2364       O  0.96206678  0.58942993  0.56552191    -0.65800
O2365       O  0.95394808  0.61085909  0.63988784    -1.12400
C2366       C  0.85298362  0.58459350  0.60717899     1.05700
O2367       O  0.94524061  0.62018844  0.55059712    -0.79000
O2368       O  0.91888615  0.64486620  0.58223937    -0.66600
Ni2369     Ni  0.96445452  0.59246108  0.66943423     1.34900
C2370       C  0.92379024  0.65636061  0.60638479     0.84500
O2371       O  0.00105250  0.61044483  0.60790212    -0.79600
O2372       O  0.99719962  0.59105169  0.64991999    -0.89900
C2373       C  0.96146349  0.60724173  0.54721221     0.84100
O2374       O  0.93502433  0.55173769  0.65738881    -0.68100
O2375       O  0.86497450  0.58976463  0.58312567    -0.87300
C2376       C  0.93390865  0.53949741  0.63399819     0.84900
C2377       C  0.51172350  0.60172486  0.62751076     1.06500
H2378       H  0.90381629  0.56572058  0.59742686     0.38300
O2379       O  0.91632703  0.58797007  0.59908784    -1.10000
O2380       O  0.92241535  0.64115736  0.62782990    -0.66700
Ni2381     Ni  0.91075154  0.59884881  0.63540983     1.26300
O2382       O  0.94522673  0.55581898  0.61221959    -0.66900
O2383       O  0.86799243  0.58657346  0.62924547    -0.79200
C2384       C  0.91546284  0.60239397  0.69420672     0.84300
O2385       O  0.90565315  0.60865155  0.67243587    -0.66400
Ni2386     Ni  0.90560115  0.60430553  0.56827898     1.27400
Ni2387     Ni  0.95853064  0.59894535  0.60318973     1.26100
H2388       H  0.96650792  0.63309480  0.64169063     0.38800
O2389       O  0.58299930  0.65734362  0.18989055    -0.81100
O2390       O  0.58553620  0.62774565  0.06268570    -0.65800
O2391       O  0.60640528  0.65602786  0.13747109    -1.12400
C2392       C  0.58269380  0.73257742  0.10535830     1.05700
O2393       O  0.61668945  0.67522116  0.04818560    -0.79000
O2394       O  0.64048474  0.72684439  0.07942341    -0.66600
Ni2395     Ni  0.58649300  0.62773829  0.16691822     1.34900
C2396       C  0.65387133  0.73180071  0.10273574     0.84500
O2397       O  0.60469478  0.60812738  0.10496302    -0.79600
O2398       O  0.58867260  0.59465842  0.14841661    -0.89900
C2399       C  0.60367396  0.64607250  0.04462066     0.84100
O2400       O  0.54573240  0.61378085  0.15332762    -0.68100
O2401       O  0.58460039  0.72349564  0.08112707    -0.87300
C2402       C  0.53461245  0.60463366  0.12924925     0.84900
C2403       C  0.59751723  0.58978496  0.12523884     1.06500
H2404       H  0.56254806  0.66298757  0.09639642     0.38300
O2405       O  0.58482277  0.67221255  0.09718517    -1.10000
O2406       O  0.64018431  0.71696794  0.12434310    -0.66700
Ni2407     Ni  0.59751042  0.68915518  0.13337370     1.26300
O2408       O  0.55167260  0.61110801  0.10797718    -0.66900
O2409       O  0.58797871  0.72183587  0.12744466    -0.79200
C2410       C  0.59910363  0.68662189  0.19174803     0.84300
O2411       O  0.60964724  0.70379400  0.17065963    -0.66400
Ni2412     Ni  0.60002131  0.69837501  0.06598152     1.27400
Ni2413     Ni  0.59480936  0.64022765  0.10050699     1.26100
H2414       H  0.62847905  0.66442888  0.13960204     0.38800
O2415       O  0.65625557  0.57713775  0.80718287    -0.81100
O2416       O  0.62461367  0.58390129  0.93305728    -0.65800
O2417       O  0.65353775  0.60154842  0.85875167    -1.12400
C2418       C  0.72835958  0.57599024  0.89294618     1.05700
O2419       O  0.67255589  0.61242969  0.94870821    -0.79000
O2420       O  0.72463109  0.63390573  0.91887507    -0.66600
Ni2421     Ni  0.62590646  0.58109277  0.82876332     1.34900
C2422       C  0.72930526  0.64757275  0.89585999     0.84500
O2423       O  0.60625043  0.60250619  0.88908737    -0.79600
O2424       O  0.59261293  0.58404564  0.84597548    -0.89900
C2425       C  0.64357170  0.60192135  0.95120515     0.84100
O2426       O  0.61151792  0.54073358  0.84314066    -0.68100
O2427       O  0.71815440  0.57651761  0.91701927    -0.87300
C2428       C  0.60105133  0.53035149  0.86697995     0.84900
C2429       C  0.58798746  0.59462147  0.86838764     1.06500
H2430       H  0.65825892  0.55738693  0.90024317     0.38300
O2431       O  0.66820867  0.57970260  0.89984728    -1.10000
O2432       O  0.71348632  0.63456762  0.87432900    -0.66700
Ni2433     Ni  0.68610951  0.59224804  0.86427737     1.26300
O2434       O  0.60687687  0.54813428  0.88790500    -0.66900
O2435       O  0.71850319  0.58255134  0.87102309    -0.79200
C2436       C  0.68558080  0.59406396  0.80630346     0.84300
O2437       O  0.70199601  0.60487059  0.82790919    -0.66400
Ni2438     Ni  0.69429052  0.59387248  0.93157464     1.27400
Ni2439     Ni  0.63725555  0.59124506  0.89529234     1.26100
H2440       H  0.66221204  0.62356673  0.85624989     0.38800
O2441       O  0.57910007  0.92071950  0.19130649    -0.81100
O2442       O  0.53879488  0.90887825  0.06575023    -0.65800
O2443       O  0.55098526  0.89356331  0.14063269    -1.12400
C2444       C  0.65109856  0.91912155  0.10623474     1.05700
O2445       O  0.55769159  0.87967665  0.05117842    -0.79000
O2446       O  0.58937033  0.85979676  0.08185611    -0.66600
Ni2447     Ni  0.54431782  0.91547365  0.16957720     1.34900
C2448       C  0.58087988  0.84670686  0.10515687     0.84500
O2449       O  0.50215921  0.89127488  0.10967412    -0.79600
O2450       O  0.50768095  0.91161107  0.15203113    -0.89900
C2451       C  0.53965261  0.89060388  0.04797173     0.84100
O2452       O  0.57019582  0.95515810  0.15396157    -0.68100
O2453       O  0.63971981  0.91748088  0.08220833    -0.87300
C2454       C  0.56987736  0.96440812  0.12967426     0.84900
C2455       C  0.99203407  0.89992879  0.12991991     1.06500
H2456       H  0.59915917  0.93635142  0.09825529     0.38300
O2457       O  0.58686254  0.91405702  0.09922644    -1.10000
O2458       O  0.57828899  0.86018591  0.12643837    -0.66700
Ni2459     Ni  0.59290302  0.90288047  0.13524210     1.26300
O2460       O  0.55713102  0.94572395  0.10948967    -0.66900
O2461       O  0.63512633  0.91283890  0.12840393    -0.79200
C2462       C  0.59190290  0.90424772  0.19322698     0.84300
O2463       O  0.59682768  0.89197128  0.17229202    -0.66400
Ni2464     Ni  0.59831638  0.89914738  0.06795686     1.27400
Ni2465     Ni  0.54442789  0.90250299  0.10365870     1.26100
H2466       H  0.53773469  0.87165837  0.14384066     0.38800
O2467       O  0.91268376  0.83608383  0.81296915    -0.81100
O2468       O  0.95466675  0.86596788  0.93677127    -0.65800
O2469       O  0.94392972  0.83810540  0.86175938    -1.12400
C2470       C  0.84611748  0.76013609  0.89616406     1.05700
O2471       O  0.93996780  0.81840222  0.95043767    -0.79000
O2472       O  0.91176297  0.76667736  0.91931120    -0.66600
Ni2473     Ni  0.95018025  0.86517935  0.83186749     1.34900
C2474       C  0.91928361  0.76244739  0.89534870     0.84500
O2475       O  0.99083335  0.88759093  0.89253178    -0.79600
O2476       O  0.98845101  0.89713732  0.84756707    -0.89900
C2477       C  0.95552006  0.84756159  0.95429776     0.84100
O2478       O  0.92801382  0.88329044  0.84723649    -0.68100
O2479       O  0.85810630  0.76863563  0.92022446    -0.87300
C2480       C  0.92479707  0.89030731  0.87171893     0.84900
C2481       C  0.50213912  0.90401786  0.87100781     1.06500
H2482       H  0.89474276  0.82935113  0.90504484     0.38300
O2483       O  0.90832324  0.82082066  0.90333538    -1.10000
O2484       O  0.91903430  0.77745282  0.87438645    -0.66700
Ni2485     Ni  0.90272010  0.80427456  0.86694905     1.26300
O2486       O  0.93361850  0.88160854  0.89284250    -0.66900
O2487       O  0.86124723  0.77113662  0.87379963    -0.79200
C2488       C  0.90255055  0.80741456  0.80936233     0.84300
O2489       O  0.89905406  0.78990973  0.82954001    -0.66400
Ni2490     Ni  0.89938747  0.79437450  0.93411365     1.27400
Ni2491     Ni  0.94970143  0.85395012  0.89869243     1.26100
H2492       H  0.95789898  0.83016673  0.85904513     0.38800
O2493       O  0.84178985  0.92477718  0.19257454    -0.81100
O2494       O  0.87062342  0.95818268  0.06478881    -0.65800
O2495       O  0.84300585  0.94825161  0.13976126    -1.12400
C2496       C  0.76685281  0.84850902  0.10542501     1.05700
O2497       O  0.82269433  0.94119232  0.05034456    -0.79000
O2498       O  0.77149939  0.91253211  0.08140493    -0.66600
Ni2499     Ni  0.87199908  0.95560679  0.16865114     1.34900
C2500       C  0.76672735  0.92018828  0.10513624     0.84500
O2501       O  0.89001882  0.99559735  0.10855062    -0.79600
O2502       O  0.90601420  0.98916551  0.14975416    -0.89900
C2503       C  0.85178312  0.95812783  0.04705908     0.84100
O2504       O  0.88199804  0.92615127  0.15418078    -0.68100
O2505       O  0.77526095  0.85999756  0.08134632    -0.87300
C2506       C  0.89267126  0.92618786  0.13036364     0.84900
C2507       C  0.90950639  0.50514888  0.12826948     1.06500
H2508       H  0.83622056  0.89877615  0.09684804     0.38300
O2509       O  0.82680032  0.91159172  0.09827302    -1.10000
O2510       O  0.78188491  0.92078619  0.12649416    -0.66700
Ni2511     Ni  0.81022576  0.90619424  0.13451656     1.26300
O2512       O  0.88814273  0.93946111  0.10977216    -0.66900
O2513       O  0.77803343  0.86413622  0.12769474    -0.79200
C2514       C  0.81241675  0.90878950  0.19319742     0.84300
O2515       O  0.79557386  0.90194740  0.17169648    -0.66400
Ni2516     Ni  0.79999801  0.90100414  0.06718395     1.27400
Ni2517     Ni  0.85852227  0.95354159  0.10277330     1.26100
H2518       H  0.83451188  0.96172410  0.14266836     0.38800
O2519       O  0.91128438  0.56900003  0.80591463    -0.81100
O2520       O  0.90978976  0.53787447  0.93364147    -0.65800
O2521       O  0.89013129  0.54652999  0.85897267    -1.12400
C2522       C  0.91756698  0.64759994  0.89245673     1.05700
O2523       O  0.87944210  0.55539297  0.94805415    -0.79000
O2524       O  0.85769456  0.58534142  0.91751735    -0.66600
Ni2525     Ni  0.91054626  0.53804315  0.82984454     1.34900
C2526       C  0.84407053  0.57656296  0.89429849     0.84500
O2527       O  0.88979547  0.49953444  0.89069116    -0.79600
O2528       O  0.91056107  0.50426285  0.84897295    -0.89900
C2529       C  0.89191646  0.53878738  0.95173913     0.84100
O2530       O  0.95088396  0.56692817  0.84344465    -0.68100
O2531       O  0.91514376  0.63655982  0.91664221    -0.87300
C2532       C  0.96182031  0.56721511  0.86727689     0.84900
C2533       C  0.89903014  0.98927035  0.87111142     1.06500
H2534       H  0.93472745  0.59640939  0.90073135     0.38300
O2535       O  0.91240448  0.58392731  0.89981847    -1.10000
O2536       O  0.85762706  0.57496575  0.87268235    -0.66700
Ni2537     Ni  0.90031217  0.58890556  0.86388604     1.26300
O2538       O  0.94432909  0.55479707  0.88811298    -0.66900
O2539       O  0.91125813  0.63132650  0.87035462    -0.79200
C2540       C  0.89849201  0.58555894  0.80552414     0.84300
O2541       O  0.88912146  0.59281988  0.82704802    -0.66400
Ni2542     Ni  0.89773827  0.59558265  0.93109232     1.27400
Ni2543     Ni  0.90118040  0.54176248  0.89582497     1.26100
H2544       H  0.86805993  0.53332530  0.85649258     0.38800
C2545       C  0.86304925  0.97945517  0.02315225    -0.05700
C2546       C  0.89179411  0.98815829  0.01087139    -0.33100
C2547       C  0.90163298  0.50726979  0.98743401     0.36100
C2548       C  0.88297254  0.51859699  0.97640200    -0.06100
C2549       C  0.85465998  0.51039538  0.98918181    -0.33000
C2550       C  0.84466736  0.99111558  0.01215126     0.36000
H2551       H  0.90637729  0.97967126  0.01912084     0.16400
O2552       O  0.92983805  0.51541751  0.97602535    -0.60500
H2553       H  0.83982366  0.51870683  0.98116424     0.16400
O2554       O  0.81681423  0.98401291  0.02378714    -0.60600
H2555       H  0.82201497  0.99972532  0.03856637     0.43400
H2556       H  0.92577641  0.49826364  0.96313536     0.43300
C2557       C  0.89836423  0.95963906  0.87420511    -0.05700
C2558       C  0.91059113  0.95391028  0.89814580    -0.33100
C2559       C  0.91743097  0.92982791  0.89863046     0.36100
C2560       C  0.91157090  0.91093787  0.87498796    -0.06100
C2561       C  0.89620420  0.91483423  0.85228432    -0.33000
C2562       C  0.88999420  0.93915123  0.85163850     0.36000
H2563       H  0.91705066  0.96953250  0.91569527     0.16400
O2564       O  0.93152512  0.92629145  0.92160054    -0.60500
H2565       H  0.89054609  0.90008312  0.83417677     0.16400
O2566       O  0.87641723  0.94324100  0.82854774    -0.60600
H2567       H  0.89318617  0.95274815  0.81467764     0.43400
H2568       H  0.95403893  0.94047526  0.91887776     0.43300
C2569       C  0.92610160  0.68058314  0.89040447    -0.05700
C2570       C  0.91726508  0.69081736  0.86693139    -0.33100
C2571       C  0.91769726  0.71909905  0.86729692     0.36100
C2572       C  0.92666477  0.73740555  0.89156981    -0.06100
C2573       C  0.93870910  0.72879517  0.91384967    -0.33000
C2574       C  0.93899263  0.70092934  0.91323425     0.36000
H2575       H  0.90778927  0.67591248  0.84894790     0.16400
O2576       O  0.90609970  0.72684745  0.84491246    -0.60500
H2577       H  0.94659473  0.74302460  0.93236399     0.16400
O2578       O  0.95022048  0.69304310  0.93580003    -0.60600
H2579       H  0.97184824  0.69904799  0.93101622     0.43400
H2580       H  0.92419174  0.73893902  0.83279149     0.43300
C2581       C  0.51801730  0.87995825  0.02408851    -0.05700
C2582       C  0.00659279  0.89855803  0.01344957    -0.33100
C2583       C  0.98623764  0.88857522  0.99067195     0.36100
C2584       C  0.97678164  0.85945908  0.97840571    -0.06100
C2585       C  0.48779198  0.84076925  0.98946889    -0.33000
C2586       C  0.50829380  0.85078135  0.01183217     0.36000
H2587       H  0.01363989  0.92097699  0.02266100     0.16400
O2588       O  0.97551524  0.90726045  0.98083693    -0.60500
H2589       H  0.48076113  0.81821922  0.98054211     0.16400
O2590       O  0.51766856  0.83119978  0.02222803    -0.60600
H2591       H  0.53447206  0.83342880  0.00983354     0.43400
H2592       H  0.95631233  0.90133097  0.99136049     0.43300
C2593       C  0.96168943  0.89850421  0.12771303    -0.05700
C2594       C  0.95306569  0.90711692  0.10311807    -0.33100
C2595       C  0.92879189  0.91381761  0.10284923     0.36100
C2596       C  0.91299550  0.91224783  0.12755861    -0.06100
C2597       C  0.91948285  0.90010288  0.15121681    -0.33000
C2598       C  0.94344552  0.89324781  0.15139405     0.36000
H2599       H  0.96653397  0.91080594  0.08454851     0.16400
O2600       O  0.92223779  0.92382663  0.07878729    -0.60500
H2601       H  0.90713791  0.89748616  0.17029974     0.16400
O2602       O  0.95001057  0.88311028  0.17540152    -0.60600
H2603       H  0.93905629  0.86022422  0.17362239     0.43400
H2604       H  0.90640934  0.90473675  0.06926161     0.43300
C2605       C  0.68403245  0.92668780  0.10792914    -0.05700
C2606       C  0.69536316  0.92035259  0.13222160    -0.33100
C2607       C  0.72358799  0.92045595  0.13233517     0.36100
C2608       C  0.74105189  0.92698548  0.10785583    -0.06100
C2609       C  0.73118089  0.93619919  0.08442282    -0.33000
C2610       C  0.70325057  0.93642050  0.08435156     0.36000
H2611       H  0.68143420  0.91330027  0.15075814     0.16400
O2612       O  0.73272021  0.91210965  0.15598430    -0.60500
H2613       H  0.74456138  0.94203987  0.06556785     0.16400
O2614       O  0.69427193  0.94453476  0.06048523    -0.60600
H2615       H  0.70241605  0.96713463  0.06221990     0.43400
H2616       H  0.72315111  0.88926925  0.15480083     0.43300
C2617       C  0.75564709  0.67949768  0.89380452    -0.05700
C2618       C  0.76533456  0.69867740  0.91728205    -0.33100
C2619       C  0.79363265  0.72643231  0.91758326     0.36100
C2620       C  0.81331205  0.73499793  0.89437438    -0.06100
C2621       C  0.80233541  0.71711551  0.87011152    -0.33000
C2622       C  0.77368065  0.68968027  0.86962657     0.36000
H2623       H  0.75141212  0.69159081  0.93583674     0.16400
O2624       O  0.80234163  0.74424530  0.94114814    -0.60500
H2625       H  0.81676533  0.72332225  0.85190311     0.16400
O2626       O  0.76508051  0.67156878  0.84624442    -0.60600
H2627       H  0.75348881  0.67892031  0.83485496     0.43400
H2628       H  0.79546289  0.75957185  0.93825315     0.43300
C2629       C  0.53172383  0.93376983  0.87293779    -0.05700
C2630       C  0.55037446  0.94485108  0.84940712    -0.33100
C2631       C  0.57417746  0.97566760  0.84777284     0.36100
C2632       C  0.57986989  0.49635405  0.87003208    -0.06100
C2633       C  0.56276166  0.98453788  0.89447773    -0.33000
C2634       C  0.53893234  0.95353650  0.89607455     0.36000
H2635       H  0.54550517  0.92989491  0.83154593     0.16400
O2636       O  0.59112204  0.48539099  0.82392403    -0.60500
H2637       H  0.56664858  0.99972616  0.91195400     0.16400
O2638       O  0.52097201  0.94377692  0.91933228    -0.60600
H2639       H  0.53087940  0.93512213  0.93137508     0.43400
H2640       H  0.57797837  0.48889381  0.81066095     0.43300
C2641       C  0.81139317  0.56953531  0.89235030    -0.05700
C2642       C  0.79980538  0.57418197  0.86740543    -0.33100
C2643       C  0.77150071  0.57396519  0.86657731     0.36100
C2644       C  0.75432858  0.56926848  0.89107492    -0.06100
C2645       C  0.76457673  0.56154533  0.91528465    -0.33000
C2646       C  0.79261784  0.56154006  0.91603589     0.36000
H2647       H  0.81357617  0.57989829  0.84880172     0.16400
O2648       O  0.76213492  0.58056233  0.84213164    -0.60500
H2649       H  0.75158002  0.55688381  0.93426823     0.16400
O2650       O  0.80212835  0.55512983  0.94050506    -0.60600
H2651       H  0.79269870  0.53228488  0.94070829     0.43400
H2652       H  0.74962925  0.56025938  0.83272844     0.43300
C2653       C  0.99601888  0.58068042  0.87015033    -0.05700
C2654       C  0.51496942  0.59418403  0.84697223    -0.33100
C2655       C  0.54594722  0.60144608  0.84700951     0.36100
C2656       C  0.55875362  0.59536329  0.87047573    -0.06100
C2657       C  0.54102864  0.58501727  0.89461241    -0.33000
C2658       C  0.50983852  0.57749212  0.89458079     0.36000
H2659       H  0.50541503  0.59773248  0.82812719     0.16400
O2660       O  0.56304900  0.61293639  0.82342391    -0.60500
H2661       H  0.55060378  0.58047590  0.91295098     0.16400
O2662       O  0.99284466  0.56568839  0.91816253    -0.60600
H2663       H  0.98581557  0.54323703  0.91768401     0.43400
H2664       H  0.57450007  0.63574156  0.82599096     0.43300
C2665       C  0.50050980  0.58400947  0.12654905    -0.05700
C2666       C  0.98222447  0.57714633  0.15037836    -0.33100
C2667       C  0.95159132  0.55303375  0.15042426     0.36100
C2668       C  0.93843902  0.53518465  0.12637311    -0.06100
C2669       C  0.95532384  0.54402200  0.10171652    -0.33000
C2670       C  0.98620004  0.56833139  0.10162001     0.36000
H2671       H  0.99211067  0.58933227  0.16963309     0.16400
O2672       O  0.93526739  0.54588357  0.17463803    -0.60500
H2673       H  0.94537318  0.53069221  0.08296003     0.16400
O2674       O  0.50264758  0.57487349  0.07753635    -0.60600
H2675       H  0.50001601  0.59128943  0.06862904     0.43400
H2676       H  0.92221267  0.55567290  0.17321864     0.43300
C2677       C  0.74168484  0.81564323  0.10695106    -0.05700
C2678       C  0.73258458  0.79760585  0.08264502    -0.33100
C2679       C  0.70511309  0.76910399  0.08146351     0.36100
C2680       C  0.68624383  0.75769237  0.10501108    -0.06100
C2681       C  0.69687539  0.77411907  0.13007797    -0.33000
C2682       C  0.72428991  0.80288906  0.13120067     0.36000
H2683       H  0.74596559  0.80625627  0.06390416     0.16400
O2684       O  0.69656608  0.75292999  0.05695556    -0.60500
H2685       H  0.68281086  0.76576646  0.14848301     0.16400
O2686       O  0.73229194  0.81928642  0.15555942    -0.60600
H2687       H  0.74620211  0.81340656  0.16513373     0.43400
H2688       H  0.68864652  0.76374534  0.04520432     0.43300
C2689       C  0.57526621  0.81475409  0.10755570    -0.05700
C2690       C  0.56506539  0.79531380  0.08427225    -0.33100
C2691       C  0.56486809  0.76721971  0.08409430     0.36100
C2692       C  0.57577411  0.75828248  0.10733980    -0.06100
C2693       C  0.58370967  0.77663314  0.13140819    -0.33000
C2694       C  0.58355145  0.80468284  0.13163971     0.36000
H2695       H  0.55811568  0.80239658  0.06571760     0.16400
O2696       O  0.55530602  0.74944822  0.06050618    -0.60500
H2697       H  0.59192848  0.77027707  0.14959396     0.16400
O2698       O  0.59352733  0.82296138  0.15491958    -0.60600
H2699       H  0.61617413  0.83664953  0.15248061     0.43400
H2700       H  0.53271393  0.73539435  0.06284541     0.43300
C2701       C  0.59754855  0.56041939  0.12209163    -0.05700
C2702       C  0.60943071  0.55072834  0.14366101    -0.33100
C2703       C  0.60265248  0.51998948  0.14525594     0.36100
C2704       C  0.58319101  0.99814734  0.12521876    -0.06100
C2705       C  0.57372150  0.50862604  0.10223700    -0.33000
C2706       C  0.58089468  0.53958066  0.10052942     0.36000
H2707       H  0.62272726  0.56671961  0.16015303     0.16400
O2708       O  0.61457793  0.01143188  0.16686572    -0.60500
H2709       H  0.55898816  0.49243194  0.08644181     0.16400
O2710       O  0.56863821  0.54830597  0.07933175    -0.60600
H2711       H  0.58389059  0.55444722  0.06416460     0.43400
H2712       H  0.60174283  0.00989286  0.18305861     0.43300
C2713       C  0.61254489  0.63408991  0.02034111    -0.05700
C2714       C  0.64218994  0.65251194  0.00923341    -0.33100
C2715       C  0.65229661  0.64225385  0.98687233     0.36100
C2716       C  0.63259040  0.61297823  0.97475475    -0.06100
C2717       C  0.60256766  0.59468888  0.98540135    -0.33000
C2718       C  0.59257905  0.60493448  0.00819373     0.36000
H2719       H  0.65798923  0.67497478  0.01821190     0.16400
O2720       O  0.68160602  0.66126667  0.97700439    -0.60500
H2721       H  0.58700847  0.57222045  0.97633490     0.16400
O2722       O  0.56332145  0.58635412  0.01830109    -0.60600
H2723       H  0.55014657  0.59323784  0.00883416     0.43400
H2724       H  0.67910346  0.67377754  0.96243738     0.43300
C2725       C  0.90386565  0.60493294  0.72125774    -0.05700
C2726       C  0.92456314  0.62801194  0.73951694    -0.33100
C2727       C  0.92040706  0.62407066  0.76805830     0.36100
C2728       C  0.89548103  0.59667281  0.77840626    -0.06100
C2729       C  0.87285998  0.57537664  0.76013646    -0.33000
C2730       C  0.87685473  0.57946165  0.73157862     0.36000
H2731       H  0.94569843  0.64744184  0.73173984     0.16400
O2732       O  0.94314398  0.64483445  0.78549543    -0.60500
H2733       H  0.85389283  0.55392306  0.76793106     0.16400
O2734       O  0.85677367  0.55620399  0.71416975    -0.60600
H2735       H  0.84375180  0.56393876  0.70581403     0.43400
H2736       H  0.93499118  0.65792366  0.79290098     0.43300
C2737       C  0.98173957  0.61585487  0.52260790    -0.05700
C2738       C  0.99103455  0.64460765  0.51028832    -0.33100
C2739       C  0.51014926  0.65425160  0.48719925     0.36100
C2740       C  0.52053264  0.63504718  0.47560212    -0.06100
C2741       C  0.51078923  0.60592199  0.48746746    -0.33000
C2742       C  0.99188540  0.59645172  0.51105590     0.36000
H2743       H  0.98366686  0.66003795  0.51874616     0.16400
O2744       O  0.51830177  0.68254642  0.47603078    -0.60500
H2745       H  0.51829469  0.59071807  0.47876332     0.16400
O2746       O  0.98273047  0.56789508  0.52207582    -0.60600
H2747       H  0.49984154  0.57107171  0.53462938     0.43400
H2748       H  0.00264220  0.67816296  0.46136903     0.43300
C2749       C  0.60498078  0.69961122  0.21995418    -0.05700
C2750       C  0.62674060  0.69651851  0.23606976    -0.33100
C2751       C  0.62462203  0.69534066  0.26491748     0.36100
C2752       C  0.60060624  0.69744710  0.27804544    -0.06100
C2753       C  0.58097322  0.70401760  0.26216052    -0.33000
C2754       C  0.58291096  0.70488205  0.23318785     0.36000
H2755       H  0.64338665  0.69170507  0.22617798     0.16400
O2756       O  0.64377298  0.68839882  0.27984922    -0.60500
H2757       H  0.56207391  0.70521615  0.27197028     0.16400
O2758       O  0.56126088  0.70780380  0.21795103    -0.60600
H2759       H  0.54344446  0.68646422  0.21590591     0.43400
H2760       H  0.66041716  0.70857391  0.28709083     0.43300
C2761       C  0.70338015  0.60099518  0.72097414    -0.05700
C2762       C  0.70247011  0.62525788  0.73483430    -0.33100
C2763       C  0.70080422  0.62538348  0.76369686     0.36100
C2764       C  0.69991654  0.60096563  0.77888385    -0.06100
C2765       C  0.70431477  0.57863040  0.76523831    -0.33000
C2766       C  0.70636330  0.57872492  0.73637310     0.36000
H2767       H  0.69971621  0.64226271  0.72321487     0.16400
O2768       O  0.69679316  0.64764199  0.77668957    -0.60500
H2769       H  0.70316966  0.55946921  0.77669284     0.16400
O2770       O  0.70675183  0.55447146  0.72329239    -0.60600
H2771       H  0.72887711  0.56213158  0.71909062     0.43400
H2772       H  0.67431348  0.64035328  0.77512192     0.43300
C2773       C  0.76243195  0.57518698  0.60754659    -0.05700
C2774       C  0.77951839  0.58223451  0.63230823    -0.33100
C2775       C  0.80835409  0.58360799  0.63316476     0.36100
C2776       C  0.82028612  0.57740071  0.60904281    -0.06100
C2777       C  0.80178453  0.56772636  0.58504827    -0.33000
C2778       C  0.77321991  0.56656327  0.58416649     0.36000
H2779       H  0.77158903  0.58881547  0.65056587     0.16400
O2780       O  0.82536115  0.59286320  0.65719333    -0.60500
H2781       H  0.81004361  0.56223202  0.56638183     0.16400
O2782       O  0.75672750  0.55834850  0.55985027    -0.60600
H2783       H  0.74175307  0.53588300  0.56150391     0.43400
H2784       H  0.83738202  0.61580330  0.65638960     0.43300
C2785       C  0.58762407  0.58518836  0.62543684    -0.05700
C2786       C  0.58493020  0.60251306  0.64716143    -0.33100
C2787       C  0.56193533  0.61067726  0.64676606     0.36100
C2788       C  0.54113035  0.60176206  0.62436372    -0.06100
C2789       C  0.54572045  0.58745359  0.60129053    -0.33000
C2790       C  0.56869286  0.57897592  0.60172105     0.36000
H2791       H  0.59963923  0.60842128  0.66531357     0.16400
O2792       O  0.55868222  0.62565183  0.66923905    -0.60500
H2793       H  0.52988701  0.58054412  0.58386408     0.16400
O2794       O  0.57109633  0.56307638  0.57956719    -0.60600
H2795       H  0.55578692  0.54100069  0.58300309     0.43400
H2796       H  0.57137465  0.64801983  0.66501227     0.43300
C2797       C  0.62057152  0.97781737  0.47780299    -0.05700
C2798       C  0.60098978  0.98788608  0.48876105    -0.33100
C2799       C  0.61010549  0.50768772  0.51185556     0.36100
C2800       C  0.63956149  0.51841237  0.52391153    -0.06100
C2801       C  0.65927528  0.50870353  0.51262419    -0.33000
C2802       C  0.65004403  0.98860145  0.48992710     0.36000
H2803       H  0.57838382  0.98010988  0.47959931     0.16400
O2804       O  0.59053189  0.51729868  0.52180121    -0.60500
H2805       H  0.68201266  0.51657212  0.52155524     0.16400
O2806       O  0.67029905  0.98004494  0.47956765    -0.60600
H2807       H  0.68194642  0.99534136  0.46495981     0.43400
H2808       H  0.57587144  0.50035106  0.53394873     0.43300
C2809       C  0.60079308  0.53490649  0.37528520    -0.05700
C2810       C  0.61047272  0.55528780  0.35292281    -0.33100
C2811       C  0.60348214  0.57914521  0.35161587     0.36100
C2812       C  0.58596277  0.58266322  0.37278744    -0.06100
C2813       C  0.57876956  0.56392400  0.39637970    -0.33000
C2814       C  0.58625549  0.54031455  0.39780267     0.36000
H2815       H  0.62215123  0.55171003  0.33565405     0.16400
O2816       O  0.61319421  0.59831829  0.32913521    -0.60500
H2817       H  0.56560345  0.56623182  0.41305998     0.16400
O2818       O  0.57632305  0.02068262  0.41994020    -0.60600
H2819       H  0.59379589  0.02983022  0.43333878     0.43400
H2820       H  0.59878012  0.58612129  0.31391875     0.43300
C2821       C  0.57765996  0.81468966  0.39054055    -0.05700
C2822       C  0.56440511  0.79459586  0.41305469    -0.33100
C2823       C  0.56293493  0.76586535  0.41366345     0.36100
C2824       C  0.57455585  0.75652189  0.39143971    -0.06100
C2825       C  0.58551917  0.77535268  0.36799054    -0.33000
C2826       C  0.58749314  0.80438157  0.36750813     0.36000
H2827       H  0.55633079  0.80169871  0.43087796     0.16400
O2828       O  0.55139554  0.74771237  0.43664870    -0.60500
H2829       H  0.59478469  0.76861413  0.35078420     0.16400
O2830       O  0.60093589  0.82317085  0.34517603    -0.60600
H2831       H  0.62351060  0.83446716  0.34922814     0.43400
H2832       H  0.52901402  0.73391135  0.43270243     0.43300
C2833       C  0.60327828  0.90206588  0.27917120    -0.05700
C2834       C  0.58190159  0.87486384  0.26531850    -0.33100
C2835       C  0.58087189  0.87371629  0.23635177     0.36100
C2836       C  0.60101733  0.90020547  0.22110384    -0.06100
C2837       C  0.62415206  0.92632468  0.23499150    -0.33000
C2838       C  0.62550118  0.92729272  0.26386061     0.36000
H2839       H  0.56427412  0.85555685  0.27688392     0.16400
O2840       O  0.55746755  0.84819934  0.22331934    -0.60500
H2841       H  0.63932374  0.94705981  0.22353145     0.16400
O2842       O  0.64604790  0.95443156  0.27690899    -0.60600
H2843       H  0.66443979  0.95236645  0.28101842     0.43400
H2844       H  0.56719122  0.83622644  0.21666255     0.43300
C2845       C  0.89527039  0.79870954  0.72288782    -0.05700
C2846       C  0.91829875  0.79548444  0.73663110    -0.33100
C2847       C  0.91822200  0.79348297  0.76549876     0.36100
C2848       C  0.89538425  0.79556429  0.78086317    -0.06100
C2849       C  0.87078004  0.79580869  0.76695298    -0.33000
C2850       C  0.87039958  0.79695145  0.73805437     0.36000
H2851       H  0.93778508  0.79725898  0.72520091     0.16400
O2852       O  0.94285013  0.79386484  0.77861533    -0.60500
H2853       H  0.85338334  0.79798428  0.77855035     0.16400
O2854       O  0.84784021  0.80046340  0.72509070    -0.60600
H2855       H  0.83036336  0.77910261  0.72214855     0.43400
H2856       H  0.93589427  0.77184010  0.78248773     0.43300
C2857       C  0.81253842  0.74301682  0.60804363    -0.05700
C2858       C  0.79508582  0.73168975  0.58364869    -0.33100
C2859       C  0.76764659  0.70315124  0.58305887     0.36100
C2860       C  0.75743732  0.68471776  0.60709479    -0.06100
C2861       C  0.77312550  0.69761167  0.63214949    -0.33000
C2862       C  0.80027641  0.72664979  0.63281500     0.36000
H2863       H  0.80352087  0.74434280  0.56452588     0.16400
O2864       O  0.75218757  0.69282839  0.55835156    -0.60500
H2865       H  0.76547266  0.68443675  0.65106740     0.16400
O2866       O  0.81607631  0.73726042  0.65732993    -0.60600
H2867       H  0.80826018  0.75027934  0.66557586     0.43400
H2868       H  0.73603731  0.69891199  0.55864936     0.43300
C2869       C  0.56372784  0.96367212  0.62825193    -0.05700
C2870       C  0.54492279  0.95689960  0.60465753    -0.33100
C2871       C  0.51372705  0.93325315  0.60505294     0.36100
C2872       C  0.00091975  0.91594130  0.62939662    -0.06100
C2873       C  0.52079635  0.92102132  0.65197864    -0.33000
C2874       C  0.55178050  0.94458956  0.65154582     0.36000
H2875       H  0.55374362  0.97140567  0.58656014     0.16400
O2876       O  0.49558171  0.92902043  0.58226086    -0.60500
H2877       H  0.01200207  0.90771855  0.67072085     0.16400
O2878       O  0.56977571  0.44992679  0.67466989    -0.60600
H2879       H  0.57980350  0.43722255  0.67202011     0.43400
H2880       H  0.49683523  0.91303269  0.57098647     0.43300
C2881       C  0.92344543  0.74207663  0.61100387    -0.05700
C2882       C  0.93770805  0.73608142  0.58863953    -0.33100
C2883       C  0.94043686  0.70950238  0.58788319     0.36100
C2884       C  0.92871085  0.68809133  0.60967941    -0.06100
C2885       C  0.91702241  0.69539327  0.63315162    -0.33000
C2886       C  0.91408811  0.72193275  0.63387418     0.36000
H2887       H  0.94576261  0.75145408  0.57106204     0.16400
O2888       O  0.95325619  0.70397137  0.56506805    -0.60500
H2889       H  0.90791743  0.67931229  0.65019294     0.16400
O2890       O  0.90032138  0.72680584  0.65634577    -0.60600
H2891       H  0.87776474  0.71520908  0.65223983     0.43400
H2892       H  0.97488356  0.71048448  0.57052781     0.43300
C2893       C  0.90616177  0.94226715  0.63150780    -0.05700
C2894       C  0.90432088  0.95616451  0.65613556    -0.33100
C2895       C  0.91143402  0.98705368  0.65694893     0.36100
C2896       C  0.92078077  0.50516819  0.63267660    -0.06100
C2897       C  0.92025959  0.99048644  0.60755336    -0.33000
C2898       C  0.91281414  0.95928018  0.60681000     0.36000
H2899       H  0.89861069  0.94337112  0.67530171     0.16400
O2900       O  0.91018776  0.49944517  0.68195386    -0.60500
H2901       H  0.92698963  0.00355736  0.58854719     0.16400
O2902       O  0.91471018  0.94658694  0.58222311    -0.60600
H2903       H  0.89352256  0.93674899  0.57419662     0.43400
H2904       H  0.93004386  0.50504376  0.69137946     0.43300
C2905       C  0.79924360  0.89301480  0.27853153    -0.05700
C2906       C  0.79933725  0.87028098  0.26139476    -0.33100
C2907       C  0.79923111  0.87282852  0.23259529     0.36100
C2908       C  0.79867754  0.89817737  0.22064064    -0.06100
C2909       C  0.79505730  0.91897111  0.23774920    -0.33000
C2910       C  0.79527619  0.91647529  0.26661035     0.36000
H2911       H  0.80285383  0.85236118  0.27030213     0.16400
O2912       O  0.80298973  0.85231472  0.21637808    -0.60500
H2913       H  0.79539871  0.93903788  0.22884106     0.16400
O2914       O  0.79580803  0.93935240  0.28283170    -0.60600
H2915       H  0.77371790  0.93268843  0.28616024     0.43400
H2916       H  0.82569313  0.86059923  0.21564444     0.43300
C2917       C  0.86468045  0.88432151  0.47912239    -0.05700
C2918       C  0.84299485  0.86009965  0.49569553    -0.33100
C2919       C  0.85227878  0.85049172  0.51901816     0.36100
C2920       C  0.88378953  0.86518438  0.52656065    -0.06100
C2921       C  0.90559399  0.88997549  0.51068133    -0.33000
C2922       C  0.89631282  0.89942345  0.48693203     0.36000
H2923       H  0.81855918  0.84802309  0.49039913     0.16400
O2924       O  0.83022549  0.82655405  0.53433486    -0.60500
H2925       H  0.92994217  0.90145380  0.51625985     0.16400
O2926       O  0.91840856  0.92294204  0.47133363    -0.60600
H2927       H  0.92039045  0.94219748  0.47933424     0.43400
H2928       H  0.82489428  0.83658769  0.54940126     0.43300
C2929       C  0.96407190  0.55744943  0.37289881    -0.05700
C2930       C  0.94501410  0.54559713  0.34948719    -0.33100
C2931       C  0.92038179  0.51514923  0.34875080     0.36100
C2932       C  0.91487000  0.99541025  0.37151610    -0.06100
C2933       C  0.93242948  0.50817229  0.39584330    -0.40200
C2934       C  0.95675301  0.53902669  0.39670062     0.36000
H2935       H  0.95007129  0.55967599  0.33115118     0.16400
O2936       O  0.90316845  0.50453290  0.32492320    -0.60500
H2937       H  0.92859015  0.99376393  0.41374537     0.16400
O2938       O  0.47511423  0.54983155  0.41987508    -0.60600
H2939       H  0.46512234  0.55855530  0.43174783     0.43400
H2940       H  0.88532676  0.50786438  0.32767567     0.43300
C2941       C  0.74088386  0.81198294  0.39241670    -0.05700
C2942       C  0.72210111  0.80361797  0.36864740    -0.33100
C2943       C  0.69333136  0.77620504  0.36773099     0.36100
C2944       C  0.68316151  0.75613747  0.39065407    -0.06100
C2945       C  0.70314735  0.76353852  0.41358680    -0.33000
C2946       C  0.73164404  0.79113998  0.41462252     0.36000
H2947       H  0.72869092  0.81942011  0.35140925     0.16400
O2948       O  0.67465771  0.77035993  0.34499331    -0.60500
H2949       H  0.69616016  0.74848183  0.43138100     0.16400
O2950       O  0.74968045  0.79810720  0.43795274    -0.60600
H2951       H  0.76268876  0.78846621  0.43496192     0.43400
H2952       H  0.66281930  0.78112207  0.34872395     0.43300
C2953       C  0.50277625  0.91641704  0.37644262    -0.05700
C2954       C  0.98171482  0.89618374  0.35652359    -0.33100
C2955       C  0.95067850  0.88850577  0.35690506     0.36100
C2956       C  0.94007909  0.90074136  0.37756118    -0.06100
C2957       C  0.96030933  0.91894760  0.39876780    -0.33000
C2958       C  0.99162975  0.92711318  0.39820710     0.36000
H2959       H  0.98962189  0.88742562  0.33977580     0.16400
O2960       O  0.93125190  0.87053597  0.33601233    -0.60500
H2961       H  0.95242393  0.92888108  0.41453217     0.16400
O2962       O  0.51143909  0.94733625  0.41781585    -0.60600
H2963       H  0.51778508  0.96826385  0.41063311     0.43400
H2964       H  0.92090420  0.84907873  0.34316106     0.43300
C2965       C  0.74326322  0.92278246  0.39035168    -0.05700
C2966       C  0.73643087  0.93594103  0.41309644    -0.33100
C2967       C  0.70885262  0.93677526  0.41404100     0.36100
C2968       C  0.68763596  0.92459169  0.39193218    -0.06100
C2969       C  0.69557298  0.91392806  0.36817685    -0.33000
C2970       C  0.72296513  0.91260416  0.36735270     0.36000
H2971       H  0.75180063  0.94426348  0.43087152     0.16400
O2972       O  0.70213585  0.94811492  0.43726237    -0.60500
H2973       H  0.67938031  0.90431809  0.35103336     0.16400
O2974       O  0.72841338  0.89925193  0.34482146    -0.60600
H2975       H  0.71797514  0.87679301  0.34893424     0.43400
H2976       H  0.71078888  0.97051988  0.43376396     0.43300
loop_ 
_geom_bond_atom_site_label_1 
_geom_bond_atom_site_label_2 
_geom_bond_distance 
_geom_bond_site_symmetry_2 
_ccdc_geom_bond_type 
O1           Ni7   1.920       .  S
O1           C22   1.270       .  A
O2          Ni25   1.912       .  S
O2           C11   1.268       .  A
O3           Ni7   1.908       .  S
O3          Ni25   1.919       .  S
O3          Ni19   1.926       .  S
O3           H26   0.966       .  S
C4           O21   1.278       .  A
C4           O13   1.277       .  A
C4          C733   1.480       .  S
O5          Ni24   1.926       .  S
O5           C11   1.272       .  A
O6          Ni24   1.907       .  S
O6            C8   1.269       .  A
Ni7          O10   1.924       .  S
Ni7          O12   1.903       .  S
C8           O18   1.271       .  A
C8          C709   1.480       .  S
O9          Ni25   1.904       .  S
O9           C15   1.267       .  A
O10          C15   1.271       .  A
C11         C685   1.488       .  S
O12          C14   1.271       .  A
O13         Ni24   1.915       .  S
C14          O20   1.279       .  A
C14         C700   1.490       .  S
C15         C724   1.466       .  S
H16          O17   0.966       .  S
O17         Ni25   1.898       .  S
O17         Ni19   1.901       .  S
O17         Ni24   1.898       .  S
O18         Ni19   1.924       .  S
Ni19         O23   1.917       .  S
Ni19         O21   1.920       .  S
O20         Ni25   1.949       .  S
C22          O23   1.269       .  A
C22         C673   1.472       .  S
O27         Ni33   1.933       .  S
O27          C48   1.272       .  A
O28         Ni51   1.912       .  S
O28          C37   1.268       .  A
O29         Ni33   1.901       .  S
O29         Ni51   1.912       .  S
O29         Ni45   1.915       .  S
O29          H52   0.967       .  S
C30          O47   1.280       .  A
C30          O39   1.279       .  A
C30         C649   1.489       .  S
O31         Ni50   1.929       .  S
O31          C37   1.273       .  A
O32         Ni50   1.909       .  S
O32          C34   1.270       .  A
Ni33         O36   1.932       .  S
Ni33         O38   1.906       .  S
C34          O44   1.270       .  A
C34         C625   1.483       .  S
O35         Ni51   1.917       .  S
O35          C41   1.275       .  A
O36          C41   1.278       .  A
C37         C688   1.475       .  S
O38          C40   1.270       .  A
O39         Ni50   1.921       .  S
C40          O46   1.274       .  A
C40         C640   1.491       .  S
C41         C661   1.487       .  S
H42          O43   0.966       .  S
O43         Ni51   1.908       .  S
O43         Ni45   1.898       .  S
O43         Ni50   1.894       .  S
O44         Ni45   1.922       .  S
Ni45         O49   1.911       .  S
Ni45         O47   1.930       .  S
O46         Ni51   1.938       .  S
C48          O49   1.267       .  A
C48         C613   1.470       .  S
O53         Ni59   1.927       .  S
O53          C74   1.269       .  A
O54         Ni77   1.906       .  S
O54          C63   1.267       .  A
O55         Ni59   1.901       .  S
O55         Ni77   1.910       .  S
O55         Ni71   1.915       .  S
O55          H78   0.967       .  S
C56          O73   1.280       .  A
C56          O65   1.278       .  A
C56         C589   1.486       .  S
O57         Ni76   1.931       .  S
O57          C63   1.272       .  A
O58         Ni76   1.906       .  S
O58          C60   1.268       .  A
Ni59         O62   1.928       .  S
Ni59         O64   1.901       .  S
C60          O70   1.269       .  A
C60         C736   1.472       .  S
O61         Ni77   1.911       .  S
O61         C811   1.273       .  A
O62         C811   1.277       .  A
C63         C565   1.481       .  S
O64          C66   1.269       .  A
O65         Ni76   1.919       .  S
C66          O72   1.272       .  A
C66         C721   1.480       .  S
C67         O805   1.273   1_545  A
C67         O806   1.277   1_545  A
C67         C577   1.475       .  S
H68          O69   0.966       .  S
O69         Ni77   1.907       .  S
O69         Ni71   1.902       .  S
O69         Ni76   1.898       .  S
O70         Ni71   1.917       .  S
Ni71         O75   1.915       .  S
Ni71         O73   1.928       .  S
O72         Ni77   1.932       .  S
C74          O75   1.268       .  A
C74         C601   1.469       .  S
O79         Ni85   1.924       .  S
O79         C100   1.269       .  A
O80        Ni103   1.911       .  S
O80          C89   1.269       .  A
O81         Ni85   1.903       .  S
O81        Ni103   1.916       .  S
O81         Ni97   1.920       .  S
O81         H104   0.966       .  S
C82          O99   1.282       .  A
C82          O91   1.277       .  A
C82         C628   1.490       .  S
O83        Ni102   1.928       .  S
O83          C89   1.272       .  A
O84        Ni102   1.905       .  S
O84          C86   1.268       .  A
Ni85         O88   1.927       .  S
Ni85         O90   1.900       .  S
C86          O96   1.271       .  A
C86         C541   1.481       .  S
O87        Ni103   1.914       .  S
O87         C837   1.273   1_545  A
O88         C837   1.275   1_545  A
C89         C568   1.482       .  S
O90          C92   1.269       .  A
O91        Ni102   1.914       .  S
C92          O98   1.274       .  A
C92         C553   1.487       .  S
C93         O831   1.273       .  A
C93         O832   1.275       .  A
C93         C637   1.478       .  S
H94          O95   0.966       .  S
O95        Ni103   1.903       .  S
O95         Ni97   1.898       .  S
O95        Ni102   1.891       .  S
O96         Ni97   1.925       .  S
Ni97        O101   1.915       .  S
Ni97         O99   1.934       .  S
O98        Ni103   1.939       .  S
C100        O101   1.268       .  A
C100        C529   1.468       .  S
O105       Ni111   1.929       .  S
O105        C126   1.272       .  A
O106       Ni129   1.914       .  S
O106        C115   1.269       .  A
O107       Ni111   1.903       .  S
O107       Ni129   1.916       .  S
O107       Ni123   1.920       .  S
O107        H130   0.966       .  S
C108        O125   1.281       .  A
C108        O117   1.278       .  A
C108        C712   1.488       .  S
O109       Ni128   1.926       .  S
O109        C115   1.272       .  A
O110       Ni128   1.907       .  S
O110        C112   1.269       .  A
Ni111       O114   1.930       .  S
Ni111       O116   1.903       .  S
C112        O122   1.270       .  A
C112        C592   1.476       .  S
O113       Ni129   1.908       .  S
O113       C1607   1.270   1_455  A
O114       C1607   1.275   1_455  A
C115        C508   1.484       .  S
O116        C118   1.270       .  A
O117       Ni128   1.917       .  S
C118        O124   1.277       .  A
C118        C580   1.489       .  S
C119       O1601   1.270       .  A
C119       O1602   1.275       .  A
C119        C697   1.476       .  S
H120        O121   0.966       .  S
O121       Ni129   1.903       .  S
O121       Ni123   1.900       .  S
O121       Ni128   1.895       .  S
O122       Ni123   1.921       .  S
Ni123       O127   1.917       .  S
Ni123       O125   1.930       .  S
O124       Ni129   1.945       .  S
C126        O127   1.269       .  A
C126        C520   1.474       .  S
O131       Ni137   1.912       .  S
O131        C152   1.268       .  A
O132       Ni155   1.913       .  S
O132        C141   1.269       .  A
O133       Ni137   1.911       .  S
O133       Ni155   1.921       .  S
O133       Ni149   1.935       .  S
O133        H156   0.966       .  S
C134        O151   1.277       .  A
C134        O143   1.278       .  A
C134        C544   1.486       .  S
O135       Ni154   1.927       .  S
O135        C141   1.272       .  A
O136       Ni154   1.906       .  S
O136        C138   1.268       .  A
Ni137       O140   1.919       .  S
Ni137       O142   1.903       .  S
C138        O148   1.270       .  A
C138        C652   1.483       .  S
O139       Ni155   1.910       .  S
O139       C1633   1.267       .  A
O140       C1633   1.269       .  A
C141        C505   1.484       .  S
O142        C144   1.272       .  A
O143       Ni154   1.920       .  S
C144        O150   1.283       .  A
C144        C664   1.497       .  S
C145       O1627   1.267       .  A
C145       O1628   1.269   1_455  A
C145        C556   1.472       .  S
H146        O147   0.966       .  S
O147       Ni155   1.899       .  S
O147       Ni149   1.900       .  S
O147       Ni154   1.902       .  S
O148       Ni149   1.925       .  S
Ni149       O153   1.907       .  S
Ni149       O151   1.921       .  S
O150       Ni155   1.960       .  S
C152        O153   1.265       .  A
C152        C493   1.463       .  S
O157       Ni163   1.921       .  S
O157        C178   1.269       .  A
O158       Ni181   1.911       .  S
O158        C167   1.266       .  A
O159       Ni163   1.907       .  S
O159       Ni181   1.919       .  S
O159       Ni175   1.923       .  S
O159        H182   0.966       .  S
C160        O177   1.282       .  A
C160        O169   1.277       .  A
C160        C460   1.487       .  S
O161       Ni180   1.928       .  S
O161        C167   1.272       .  A
O162       Ni180   1.904       .  S
O162        C164   1.268       .  A
Ni163       O166   1.924       .  S
Ni163       O168   1.901       .  S
C164        O174   1.270       .  A
C164        C448   1.482       .  S
O165       Ni181   1.908       .  S
O165        C171   1.270       .  A
O166        C171   1.273       .  A
C167        C481   1.482       .  S
O168        C170   1.270       .  A
O169       Ni180   1.912       .  S
C170        O176   1.273       .  A
C170        C433   1.487       .  S
C171        C469   1.472       .  S
H172        O173   0.966       .  S
O173       Ni181   1.901       .  S
O173       Ni175   1.905       .  S
O173       Ni180   1.896       .  S
O174       Ni175   1.923       .  S
Ni175       O179   1.923       .  S
Ni175       O177   1.934       .  S
O176       Ni181   1.936       .  S
C178        O179   1.270       .  A
C178        C517   1.473       .  S
O183       Ni189   1.929       .  S
O183        C204   1.271       .  A
O184       Ni207   1.912       .  S
O184        C193   1.269       .  A
O185       Ni189   1.901       .  S
O185       Ni207   1.911       .  S
O185       Ni201   1.916       .  S
O185        H208   0.966       .  S
C186        O203   1.279       .  A
C186        O195   1.279       .  A
C186        C412   1.493       .  S
O187       Ni206   1.928       .  S
O187        C193   1.272       .  A
O188       Ni206   1.910       .  S
O188        C190   1.269       .  A
Ni189       O192   1.928       .  S
Ni189       O194   1.903       .  S
C190        O200   1.267       .  A
C190        C385   1.476       .  S
O191       Ni207   1.912       .  S
O191        C197   1.273       .  A
O192        C197   1.275       .  A
C193        C484   1.484       .  S
O194        C196   1.270       .  A
O195       Ni206   1.920       .  S
C196        O202   1.277       .  A
C196        C400   1.491   1_545  S
C197        C424   1.479       .  S
H198        O199   0.966       .  S
O199       Ni207   1.909       .  S
O199       Ni201   1.901       .  S
O199       Ni206   1.899       .  S
O200       Ni201   1.913       .  S
Ni201       O205   1.909       .  S
Ni201       O203   1.929       .  S
O202       Ni207   1.943       .  S
C204        O205   1.266       .  A
C204        C532   1.468       .  S
O209       Ni215   1.926       .  S
O209        C230   1.270       .  A
O210       Ni233   1.908       .  S
O210        C219   1.267       .  A
O211       Ni215   1.903       .  S
O211       Ni233   1.913       .  S
O211       Ni227   1.918       .  S
O211        H234   0.967       .  S
C212        O229   1.282       .  A
C212        O221   1.277       .  A
C212        C373   1.490       .  S
O213       Ni232   1.928       .  S
O213        C219   1.272       .  A
O214       Ni232   1.908       .  S
O214        C216   1.270       .  A
Ni215       O218   1.931       .  S
Ni215       O220   1.902       .  S
C216        O226   1.269       .  A
C216        C457   1.479       .  S
O217       Ni233   1.913       .  S
O217       C1711   1.272   1_455  A
O218       C1711   1.276   1_455  A
C219        C349   1.482       .  S
O220        C222   1.268       .  A
O221       Ni232   1.915       .  S
C222        O228   1.274       .  A
C222        C472   1.485       .  S
C223       O1705   1.272       .  A
C223       O1706   1.276       .  A
C223        C361   1.481       .  S
H224        O225   0.966       .  S
O225       Ni233   1.906       .  S
O225       Ni227   1.902       .  S
O225       Ni232   1.895       .  S
O226       Ni227   1.919       .  S
Ni227       O231   1.915       .  S
Ni227       O229   1.934       .  S
O228       Ni233   1.938       .  S
C230        O231   1.268       .  A
C230        C604   1.469       .  S
O235       Ni241   1.923       .  S
O235        C256   1.267       .  A
O236       Ni259   1.913       .  S
O236        C245   1.269       .  A
O237       Ni241   1.901       .  S
O237       Ni259   1.914       .  S
O237       Ni253   1.915       .  S
O237        H260   0.966       .  S
C238        O255   1.280       .  A
C238        O247   1.277       .  A
C238        C388   1.483       .  S
O239       Ni258   1.925       .  S
O239        C245   1.273       .  A
O240       Ni258   1.909       .  S
O240        C242   1.269       .  A
Ni241       O244   1.922       .  S
Ni241       O246   1.893       .  S
C242        O252   1.268       .  A
C242        C340   1.478       .  S
O243       Ni259   1.916       .  S
O243       C1737   1.275       .  A
O244       C1737   1.276       .  A
C245        C352   1.481       .  S
O246        C248   1.268       .  A
O247       Ni258   1.916       .  S
C248        O254   1.273       .  A
C248        C328   1.481       .  S
C249       O1731   1.275   1_455  A
C249       O1732   1.276   1_455  A
C249        C397   1.481       .  S
H250        O251   0.966       .  S
O251       Ni259   1.905       .  S
O251       Ni253   1.902       .  S
O251       Ni258   1.896       .  S
O252       Ni253   1.915       .  S
Ni253       O257   1.919       .  S
Ni253       O255   1.925       .  S
O254       Ni259   1.932       .  S
C256        O257   1.266       .  A
C256        C616   1.469       .  S
O261       Ni267   1.919       .  S
O261        C282   1.269       .  A
O262       Ni285   1.916       .  S
O262        C271   1.269       .  A
O263       Ni267   1.905       .  S
O263       Ni285   1.919       .  S
O263       Ni279   1.923       .  S
O263        H286   0.966       .  S
C264        O281   1.279       .  A
C264        O273   1.278       .  A
C264        C445   1.487       .  S
O265       Ni284   1.927       .  S
O265        C271   1.272       .  A
O266       Ni284   1.907       .  S
O266        C268   1.269       .  A
Ni267       O270   1.923       .  S
Ni267       O272   1.903       .  S
C268        O278   1.270       .  A
C268        C376   1.484       .  S
O269       Ni285   1.908       .  S
O269       C1019   1.268       .  A
O270       C1019   1.272       .  A
C271        C313   1.485       .  S
O272        C274   1.271       .  A
O273       Ni284   1.915       .  S
C274        O280   1.280       .  A
C274        C364   1.493       .  S
C275       O1013   1.268   1_545  A
C275       O1014   1.272   1_545  A
C275        C436   1.474       .  S
H276        O277   0.966       .  S
O277       Ni285   1.900       .  S
O277       Ni279   1.904       .  S
O277       Ni284   1.898       .  S
O278       Ni279   1.923       .  S
Ni279       O283   1.917       .  S
Ni279       O281   1.925       .  S
O280       Ni285   1.954       .  S
C282        O283   1.269       .  A
C282        C676   1.471       .  S
O287       Ni293   1.920       .  S
O287        C308   1.271       .  A
O288       Ni311   1.912       .  S
O288        C297   1.268       .  A
O289       Ni293   1.907       .  S
O289       Ni311   1.916       .  S
O289       Ni305   1.924       .  S
O289        H312   0.965       .  S
C290        O307   1.280       .  A
C290        O299   1.277       .  A
C290        C337   1.483       .  S
O291       Ni310   1.927       .  S
O291        C297   1.272       .  A
O292       Ni310   1.908       .  S
O292        C294   1.269       .  A
Ni293       O296   1.926       .  S
Ni293       O298   1.906       .  S
C294        O304   1.271       .  A
C294        C409   1.487       .  S
O295       Ni311   1.902   1_565  S
O295       C1045   1.267       .  A
O296       C1045   1.273   1_545  A
C297        C316   1.485       .  S
O298        C300   1.272       .  A
O299       Ni310   1.914       .  S
C300        O306   1.278       .  A
C300        C421   1.492       .  S
C301       O1039   1.267       .  A
C301       O1040   1.273       .  A
C301        C325   1.470       .  S
H302        O303   0.966       .  S
O303       Ni311   1.895       .  S
O303       Ni305   1.897       .  S
O303       Ni310   1.894       .  S
O304       Ni305   1.928       .  S
Ni305       O309   1.907       .  S
Ni305       O307   1.926       .  S
O306       Ni311   1.947       .  S
C308        O309   1.266       .  A
C308        C496   1.464       .  S
C313        C314   1.407       .  A
C313        C318   1.412       .  A
C314       C1059   1.408   1_554  A
C314        H319   1.083       .  S
C315        C316   1.412       .  A
C315       C1058   1.408   1_546  A
C315        O320   1.371       .  S
C316        C317   1.404       .  A
C317       C1062   1.394   1_546  A
C317        H321   1.084       .  S
C318       C1061   1.394   1_554  A
C318        O322   1.372       .  S
O320        H324   0.992   1_545  S
O322        H323   0.992       .  S
C325        C326   1.403       .  A
C325        C330   1.404       .  A
C326        C327   1.403       .  A
C326        H331   1.083       .  S
C327        C328   1.413       .  A
C327        O332   1.372       .  S
C328        C329   1.406       .  A
C329        C330   1.394       .  A
C329        H333   1.084       .  S
C330        O334   1.373       .  S
O332        H336   0.992       .  S
O334        H335   0.992       .  S
C337        C338   1.405       .  A
C337        C342   1.413       .  A
C338        C339   1.400       .  A
C338        H343   1.084       .  S
C339        C340   1.412       .  A
C339        O344   1.372       .  S
C340        C341   1.402       .  A
C341        C342   1.397       .  A
C341        H345   1.084       .  S
C342        O346   1.372       .  S
O344        H348   0.992       .  S
O346        H347   0.992       .  S
C349        C354   1.410       .  A
C349       C1838   1.407       .  A
C350        C351   1.406   1_554  A
C350       C1837   1.407       .  A
C350        H355   1.083       .  S
C351        C352   1.410       .  A
C351        O356   1.371       .  S
C352       C1841   1.404       .  A
C353        C354   1.394   1_656  A
C353       C1840   1.404       .  A
C353        H357   1.084       .  S
C354        O358   1.373       .  S
O356        H360   0.992       .  S
O358        H359   0.992       .  S
C361        C362   1.405       .  A
C361        C366   1.407       .  A
C362        C363   1.406       .  A
C362        H367   1.084       .  S
C363        C364   1.415       .  A
C363        O368   1.371       .  S
C364        C365   1.408       .  A
C365        C366   1.396       .  A
C365        H369   1.083       .  S
C366        O370   1.372       .  S
O368        H372   0.992       .  S
O370        H371   0.992       .  S
C373        C374   1.407       .  A
C373        C378   1.415       .  A
C374        C375   1.403       .  A
C374        H379   1.083       .  S
C375        C376   1.412       .  A
C375        O380   1.372       .  S
C376        C377   1.403       .  A
C377        C378   1.397       .  A
C377        H381   1.084       .  S
C378        O382   1.372       .  S
O380        H384   0.992       .  S
O382        H383   0.992       .  S
C385        C386   1.402       .  A
C385        C390   1.411       .  A
C386        C387   1.397       .  A
C386        H391   1.084       .  S
C387        C388   1.414       .  A
C387        O392   1.372       .  S
C388        C389   1.405       .  A
C389        C390   1.399       .  A
C389        H393   1.083       .  S
C390        O394   1.372       .  S
O392        H396   0.992       .  S
O394        H395   0.992       .  S
C397        C398   1.402       .  A
C397        C402   1.410       .  A
C398        C399   1.398       .  A
C398        H403   1.084       .  S
C399       C1144   1.415       .  A
C399       O1148   1.372       .  S
C400       C1143   1.415       .  A
C400       C1145   1.409       .  A
C401        C402   1.404       .  A
C401       C1144   1.409       .  A
C401        H405   1.083       .  S
C402        O406   1.372       .  S
O404       C1143   1.372       .  S
O404        H408   0.992       .  S
O406        H407   0.992       .  S
C409        C410   1.406       .  A
C409        C414   1.410       .  A
C410        C411   1.405       .  A
C410        H415   1.084       .  S
C411        C412   1.415       .  A
C411        O416   1.371       .  S
C412        C413   1.407       .  A
C413        C414   1.397       .  A
C413        H417   1.083       .  S
C414        O418   1.372       .  S
O416        H420   0.992       .  S
O418        H419   0.992       .  S
C421       C1910   1.408       .  A
C421       C1914   1.416       .  A
C422        C423   1.398       .  A
C422       C1909   1.408   1_455  A
C422        H427   1.083       .  S
C423        C424   1.408       .  A
C423        O428   1.372       .  S
C424        C425   1.403       .  A
C425        C426   1.404       .  A
C425        H429   1.084       .  S
C426       C1909   1.416   1_455  A
C426       O1918   1.372   1_455  S
O428        H432   0.992       .  S
O430       C1914   1.372       .  S
O430        H431   0.992       .  S
C433       C1922   1.406   1_455  A
C433       C1926   1.416   1_455  A
C434        C435   1.393       .  A
C434       C1921   1.406       .  A
C434        H439   1.083       .  S
C435        C436   1.407       .  A
C435        O440   1.372       .  S
C436        C437   1.403       .  A
C437        C438   1.404       .  A
C437        H441   1.084       .  S
C438       C1921   1.416       .  A
C438       O1930   1.371       .  S
O440        H444   0.992       .  S
O442       C1926   1.371   1_455  S
O442        H443   0.992       .  S
C445        C446   1.407       .  A
C445        C450   1.413       .  A
C446        C447   1.396       .  A
C446        H451   1.083       .  S
C447        C448   1.409       .  A
C447        O452   1.373       .  S
C448        C449   1.406       .  A
C449        C450   1.402       .  A
C449        H453   1.084       .  S
C450        O454   1.371       .  S
O452        H456   0.992       .  S
O454        H455   0.992       .  S
C457        C458   1.401       .  A
C457        C462   1.412       .  A
C458        C459   1.396       .  A
C458        H463   1.084       .  S
C459        C460   1.416       .  A
C459        O464   1.372       .  S
C460        C461   1.406       .  A
C461        C462   1.403       .  A
C461        H465   1.083       .  S
C462        O466   1.372       .  S
O464        H468   0.992       .  S
O466        H467   0.992       .  S
C469        C470   1.401       .  A
C469        C474   1.407       .  A
C470        C471   1.398       .  A
C470        H475   1.084       .  S
C471       C1216   1.413   1_545  A
C471       O1220   1.373       .  S
C472       C1215   1.413       .  A
C472       C1217   1.408       .  A
C473        C474   1.402       .  A
C473       C1216   1.408   1_545  A
C473        H477   1.083   1_545  S
C474        O478   1.372       .  S
O476       C1215   1.373       .  S
O476        H480   0.992       .  S
O478        H479   0.992       .  S
C481        C482   1.402       .  A
C481        C486   1.411       .  A
C482        C483   1.394   1_554  A
C482        H487   1.084       .  S
C483        C484   1.412       .  A
C483        O488   1.372       .  S
C484        C485   1.407       .  A
C485        C486   1.407   1_556  A
C485        H489   1.083       .  S
C486        O490   1.371       .  S
O488        H492   0.992       .  S
O490        H491   0.992       .  S
C493        C494   1.403       .  A
C493        C498   1.405       .  A
C494        C495   1.398       .  A
C494        H499   1.084       .  S
C495        C496   1.405       .  A
C495        O500   1.372       .  S
C496        C497   1.403       .  A
C497        C498   1.399       .  A
C497        H501   1.084       .  S
C498        O502   1.372       .  S
O500        H504   0.992       .  S
O502        H503   0.992       .  S
C505        C506   1.404       .  A
C505        C510   1.411       .  A
C506       C1995   1.394       .  A
C506        H511   1.084       .  S
C507        C508   1.411       .  A
C507       C1994   1.394   1_455  A
C507        O512   1.372       .  S
C508        C509   1.407       .  A
C509       C1998   1.408   1_455  A
C509        H513   1.083       .  S
C510       C1997   1.408       .  A
C510        O514   1.371       .  S
O512       H2004   0.992       .  S
O514       H2003   0.992       .  S
H515       O2002   0.992       .  S
H516       O2000   0.992       .  S
C517        C518   1.404       .  A
C517        C522   1.407       .  A
C518        C519   1.400       .  A
C518        H523   1.084       .  S
C519        C520   1.406       .  A
C519        O524   1.371       .  S
C520        C521   1.405       .  A
C521        C522   1.406       .  A
C521        H525   1.084       .  S
C522        O526   1.372       .  S
O524        H528   0.992       .  S
O526        H527   0.992       .  S
C529        C530   1.401       .  A
C529        C534   1.408       .  A
C530        C531   1.400       .  A
C530        H535   1.084       .  S
C531        C532   1.407       .  A
C531        O536   1.372       .  S
C532        C533   1.401       .  A
C533        C534   1.402       .  A
C533        H537   1.084       .  S
C534        O538   1.371       .  S
O536        H540   0.992       .  S
O538        H539   0.992       .  S
C541        C542   1.406       .  A
C541        C546   1.409       .  A
C542        C543   1.404       .  A
C542        H547   1.084       .  S
C543        C544   1.414       .  A
C543        O548   1.372       .  S
C544        C545   1.406       .  A
C545        C546   1.395       .  A
C545        H549   1.084       .  S
C546        O550   1.372       .  S
O548        H552   0.992       .  S
O550        H551   0.992       .  S
C553        C554   1.407       .  A
C553        C558   1.415       .  A
C554        C555   1.394       .  A
C554        H559   1.084       .  S
C555        C556   1.406       .  A
C555        O560   1.372       .  S
C556        C557   1.402       .  A
C557        C558   1.404       .  A
C557        H561   1.084       .  S
C558        O562   1.372       .  S
O560        H564   0.992       .  S
O562        H563   0.992       .  S
C565        C566   1.406       .  A
C565        C570   1.411       .  A
C566       C1311   1.404       .  A
C566        H571   1.083       .  S
C567        C568   1.410       .  A
C567       C1310   1.404   1_545  A
C567        O572   1.371       .  S
C568        C569   1.405       .  A
C569       C1314   1.396   1_545  A
C569        H573   1.084       .  S
C570       C1313   1.396       .  A
C570        O574   1.372       .  S
O572        H576   0.992       .  S
O574        H575   0.992       .  S
C577        C578   1.401       .  A
C577        C582   1.408       .  A
C578        C579   1.398       .  A
C578        H583   1.084       .  S
C579        C580   1.414       .  A
C579        O584   1.372       .  S
C580        C581   1.409       .  A
C581        C582   1.403       .  A
C581        H585   1.083       .  S
C582       O1330   1.372       .  S
O584        H588   0.992       .  S
O586       C1326   1.372       .  S
O586        H587   0.992       .  S
C589        C590   1.408       .  A
C589        C594   1.413       .  A
C590        C591   1.398       .  A
C590        H595   1.083       .  S
C591        C592   1.407       .  A
C591        O596   1.372       .  S
C592        C593   1.404       .  A
C593        C594   1.401       .  A
C593        H597   1.084       .  S
C594        O598   1.372       .  S
O596        H600   0.992       .  S
O598        H599   0.992       .  S
C601        C602   1.402       .  A
C601        C606   1.407       .  A
C602        C603   1.403       .  A
C602        H607   1.084       .  S
C603        C604   1.409       .  A
C603        O608   1.371       .  S
C604        C605   1.401       .  A
C605        C606   1.399       .  A
C605        H609   1.084       .  S
C606        O610   1.372       .  S
O608        H612   0.992       .  S
O610        H611   0.991       .  S
C613        C614   1.402       .  A
C613        C618   1.407       .  A
C614        C615   1.402       .  A
C614        H619   1.084       .  S
C615        C616   1.408       .  A
C615        O620   1.371       .  S
C616        C617   1.402       .  A
C617        C618   1.401       .  A
C617        H621   1.084       .  S
C618        O622   1.372       .  S
O620        H624   0.992       .  S
O622        H623   0.992       .  S
C625        C626   1.402       .  A
C625        C630   1.412       .  A
C626        C627   1.396       .  A
C626        H631   1.084       .  S
C627        C628   1.416       .  A
C627        O632   1.372       .  S
C628        C629   1.407       .  A
C629        C630   1.403       .  A
C629        H633   1.083       .  S
C630        O634   1.371       .  S
O632        H636   0.992       .  S
O634        H635   0.992       .  S
C637        C638   1.404       .  A
C637        C642   1.407       .  A
C638        C639   1.405       .  A
C638        H643   1.084       .  S
C639       C2128   1.416       .  A
C639        O644   1.371   1_455  S
C640       C2127   1.416       .  A
C640       C2129   1.407       .  A
C641        C642   1.397       .  A
C641       C2128   1.407       .  A
C641       H2133   1.083       .  S
C642       O1390   1.372       .  S
O644        H648   0.992       .  S
H645       C2129   1.083       .  S
O646       C1386   1.372       .  S
O646        H647   0.992       .  S
C649        C650   1.407       .  A
C649        C654   1.414       .  A
C650        C651   1.399       .  A
C650        H655   1.083       .  S
C651        C652   1.409       .  A
C651        O656   1.372       .  S
C652        C653   1.406       .  A
C653        C654   1.402       .  A
C653        H657   1.084       .  S
C654        O658   1.372       .  S
O656        H660   0.992       .  S
O658        H659   0.992       .  S
C661        C662   1.403       .  A
C661        C666   1.411       .  A
C662        C663   1.398       .  A
C662        H667   1.084       .  S
C663       C1408   1.417       .  A
C663       O1412   1.372       .  S
C664       C1407   1.417   1_545  A
C664       C1409   1.410   1_545  A
C665        C666   1.408       .  A
C665       C1408   1.410       .  A
C665        H669   1.083       .  S
C666        O670   1.371       .  S
O668       C1407   1.372       .  S
O668        H672   0.992   1_565  S
O670        H671   0.992       .  S
C673        C674   1.404       .  A
C673        C678   1.406       .  A
C674        C675   1.401       .  A
C674        H679   1.084       .  S
C675        C676   1.405       .  A
C675        O680   1.372       .  S
C676        C677   1.405       .  A
C677        C678   1.404       .  A
C677        H681   1.084       .  S
C678        O682   1.371       .  S
O680        H684   0.992       .  S
O682        H683   0.992       .  S
C685        C686   1.407       .  A
C685        C690   1.414       .  A
C686        C687   1.394       .  A
C686        H691   1.083       .  S
C687        C688   1.406       .  A
C687        O692   1.373       .  S
C688        C689   1.404       .  A
C689        C690   1.406       .  A
C689        H693   1.084       .  S
C690        O694   1.371       .  S
O692        H696   0.992       .  S
O694        H695   0.992       .  S
C697        C698   1.401       .  A
C697        C702   1.408       .  A
C698        C699   1.396       .  A
C698        H703   1.084       .  S
C699       C1444   1.415   1_545  A
C699        O704   1.371       .  S
C700       C1443   1.415       .  A
C700       C1445   1.410       .  A
C701        C702   1.404       .  A
C701       C1444   1.410   1_545  A
C701       H1449   1.083   1_545  S
C702       O2194   1.372       .  S
O704        H708   0.992       .  S
H705       C1445   1.083       .  S
O706       C2190   1.372       .  S
O706        H707   0.992       .  S
C709        C710   1.405       .  A
C709        C714   1.408       .  A
C710        C711   1.402       .  A
C710        H715   1.084       .  S
C711        C712   1.413       .  A
C711        O716   1.372       .  S
C712        C713   1.408       .  A
C713        C714   1.399       .  A
C713        H717   1.083       .  S
C714        O718   1.372       .  S
O716        H720   0.992       .  S
O718        H719   0.992       .  S
C721       C2210   1.405   1_455  A
C721       C2214   1.414   1_455  A
C722        C723   1.395       .  A
C722       C2209   1.405       .  A
C722        H727   1.084       .  S
C723        C724   1.404       .  A
C723        O728   1.372       .  S
C724        C725   1.402       .  A
C725        C726   1.402       .  A
C725        H729   1.084       .  S
C726       C2209   1.414       .  A
C726       O2218   1.372       .  S
O728        H732   0.992       .  S
O730       C2214   1.372   1_455  S
O730        H731   0.992       .  S
C733        C734   1.406       .  A
C733        C738   1.412       .  A
C734        C735   1.396       .  A
C734        H739   1.084       .  S
C735        C736   1.406       .  A
C735        O740   1.372       .  S
C736        C737   1.403       .  A
C737        C738   1.399       .  A
C737        H741   1.084       .  S
C738        O742   1.372       .  S
O740        H744   0.992       .  S
O742        H743   0.992       .  S
O745       Ni751   1.920       .  S
O745        C766   1.270       .  A
O746       Ni769   1.912       .  S
O746        C755   1.268       .  A
O747       Ni751   1.908       .  S
O747       Ni769   1.919       .  S
O747       Ni763   1.926       .  S
O747        H770   0.966       .  S
C748        O765   1.278       .  A
C748        O757   1.277       .  A
C748       C1477   1.480       .  S
O749       Ni768   1.926       .  S
O749        C755   1.272       .  A
O750       Ni768   1.907       .  S
O750        C752   1.269       .  A
Ni751       O754   1.924       .  S
Ni751       O756   1.903       .  S
C752        O762   1.271       .  A
C752       C1453   1.480       .  S
O753       Ni769   1.904       .  S
O753        C759   1.267       .  A
O754        C759   1.271       .  A
C755       C1429   1.488       .  S
O756        C758   1.271       .  A
O757       Ni768   1.915       .  S
C758        O764   1.279       .  A
C758       C1444   1.490       .  S
C759       C1468   1.466       .  S
H760        O761   0.966       .  S
O761       Ni769   1.898       .  S
O761       Ni763   1.901       .  S
O761       Ni768   1.898       .  S
O762       Ni763   1.924       .  S
Ni763       O767   1.917       .  S
Ni763       O765   1.920       .  S
O764       Ni769   1.949       .  S
C766        O767   1.269       .  A
C766       C1417   1.472       .  S
O771       Ni777   1.933       .  S
O771        C792   1.272       .  A
O772       Ni795   1.912       .  S
O772        C781   1.268       .  A
O773       Ni777   1.901       .  S
O773       Ni795   1.912       .  S
O773       Ni789   1.915       .  S
O773        H796   0.967       .  S
C774        O791   1.280       .  A
C774        O783   1.279       .  A
C774       C1393   1.489       .  S
O775       Ni794   1.929       .  S
O775        C781   1.273       .  A
O776       Ni794   1.909       .  S
O776        C778   1.270       .  A
Ni777       O780   1.932       .  S
Ni777       O782   1.906       .  S
C778        O788   1.270       .  A
C778       C1369   1.483       .  S
O779       Ni795   1.917       .  S
O779        C785   1.275       .  A
O780        C785   1.278       .  A
C781       C1432   1.475       .  S
O782        C784   1.270       .  A
O783       Ni794   1.921       .  S
C784        O790   1.274       .  A
C784       C1384   1.491       .  S
C785       C1405   1.487       .  S
H786        O787   0.966       .  S
O787       Ni795   1.908       .  S
O787       Ni789   1.898       .  S
O787       Ni794   1.894       .  S
O788       Ni789   1.922       .  S
Ni789       O793   1.911       .  S
Ni789       O791   1.930       .  S
O790       Ni795   1.938       .  S
C792        O793   1.267       .  A
C792       C1357   1.470       .  S
O797       Ni803   1.927       .  S
O797        C818   1.269       .  A
O798       Ni821   1.906       .  S
O798        C807   1.267       .  A
O799       Ni803   1.901       .  S
O799       Ni821   1.910       .  S
O799       Ni815   1.915       .  S
O799        H822   0.967       .  S
C800        O817   1.280       .  A
C800        O809   1.278       .  A
C800       C1333   1.486       .  S
O801       Ni820   1.931       .  S
O801        C807   1.272       .  A
O802       Ni820   1.906       .  S
O802        C804   1.268       .  A
Ni803       O806   1.928       .  S
Ni803       O808   1.901       .  S
C804        O814   1.269       .  A
C804       C1480   1.472       .  S
O805       Ni821   1.911       .  S
C807       C1309   1.481       .  S
O808        C810   1.269       .  A
O809       Ni820   1.919       .  S
C810        O816   1.272       .  A
C810       C1465   1.480       .  S
C811       C1321   1.475       .  S
H812        O813   0.966       .  S
O813       Ni821   1.907       .  S
O813       Ni815   1.902       .  S
O813       Ni820   1.898       .  S
O814       Ni815   1.917       .  S
Ni815       O819   1.915       .  S
Ni815       O817   1.928       .  S
O816       Ni821   1.932       .  S
C818        O819   1.268       .  A
C818       C1345   1.469       .  S
O823       Ni829   1.924       .  S
O823        C844   1.269       .  A
O824       Ni847   1.911       .  S
O824        C833   1.269       .  A
O825       Ni829   1.903       .  S
O825       Ni847   1.916       .  S
O825       Ni841   1.920       .  S
O825        H848   0.966       .  S
C826        O843   1.282       .  A
C826        O835   1.277       .  A
C826       C1372   1.490       .  S
O827       Ni846   1.928       .  S
O827        C833   1.272       .  A
O828       Ni846   1.905       .  S
O828        C830   1.268       .  A
Ni829       O832   1.927       .  S
Ni829       O834   1.900       .  S
C830        O840   1.271       .  A
C830       C1285   1.481       .  S
O831       Ni847   1.914       .  S
C833       C1312   1.482       .  S
O834        C836   1.269       .  A
O835       Ni846   1.914       .  S
C836        O842   1.274       .  A
C836       C1297   1.487       .  S
C837       C1381   1.478       .  S
H838        O839   0.966       .  S
O839       Ni847   1.903       .  S
O839       Ni841   1.898       .  S
O839       Ni846   1.891       .  S
O840       Ni841   1.925       .  S
Ni841       O845   1.915       .  S
Ni841       O843   1.934       .  S
O842       Ni847   1.939       .  S
C844        O845   1.268       .  A
C844       C1273   1.468       .  S
O849       Ni855   1.929       .  S
O849        C870   1.272       .  A
O850       Ni873   1.914       .  S
O850        C859   1.269       .  A
O851       Ni855   1.903       .  S
O851       Ni873   1.916       .  S
O851       Ni867   1.920       .  S
O851        H874   0.966       .  S
C852        O869   1.281       .  A
C852        O861   1.278       .  A
C852       C1456   1.488       .  S
O853       Ni872   1.926       .  S
O853        C859   1.272       .  A
O854       Ni872   1.907       .  S
O854        C856   1.269       .  A
Ni855       O858   1.930       .  S
Ni855       O860   1.903       .  S
C856        O866   1.270       .  A
C856       C1336   1.476       .  S
O857       Ni873   1.908       .  S
O857       C2351   1.270   1_455  A
O858       C2351   1.275   1_455  A
C859       C1252   1.484       .  S
O860        C862   1.270       .  A
O861       Ni872   1.917       .  S
C862        O868   1.277       .  A
C862       C1324   1.489       .  S
C863       O2345   1.270       .  A
C863       O2346   1.275       .  A
C863       C1441   1.476       .  S
H864        O865   0.966       .  S
O865       Ni873   1.903       .  S
O865       Ni867   1.900       .  S
O865       Ni872   1.895       .  S
O866       Ni867   1.921       .  S
Ni867       O871   1.917       .  S
Ni867       O869   1.930       .  S
O868       Ni873   1.945       .  S
C870        O871   1.269       .  A
C870       C1264   1.474       .  S
O875       Ni881   1.912       .  S
O875        C896   1.268       .  A
O876       Ni899   1.913       .  S
O876        C885   1.269       .  A
O877       Ni881   1.911       .  S
O877       Ni899   1.921       .  S
O877       Ni893   1.935       .  S
O877        H900   0.966       .  S
C878        O895   1.277       .  A
C878        O887   1.278       .  A
C878       C1288   1.486       .  S
O879       Ni898   1.927       .  S
O879        C885   1.272       .  A
O880       Ni898   1.906       .  S
O880        C882   1.268       .  A
Ni881       O884   1.919       .  S
Ni881       O886   1.903       .  S
C882        O892   1.270       .  A
C882       C1396   1.483       .  S
O883       Ni899   1.910       .  S
O883       C2377   1.267       .  A
O884       C2377   1.269       .  A
C885       C1249   1.484       .  S
O886        C888   1.272       .  A
O887       Ni898   1.920       .  S
C888        O894   1.283       .  A
C888       C1408   1.497       .  S
C889       O2371   1.267       .  A
C889       O2372   1.269   1_455  A
C889       C1300   1.472       .  S
H890        O891   0.966       .  S
O891       Ni899   1.899       .  S
O891       Ni893   1.900       .  S
O891       Ni898   1.902       .  S
O892       Ni893   1.925       .  S
Ni893       O897   1.907       .  S
Ni893       O895   1.921       .  S
O894       Ni899   1.960       .  S
C896        O897   1.265       .  A
C896       C1237   1.463       .  S
O901       Ni907   1.921       .  S
O901        C922   1.269       .  A
O902       Ni925   1.911       .  S
O902        C911   1.266       .  A
O903       Ni907   1.907       .  S
O903       Ni925   1.919       .  S
O903       Ni919   1.923       .  S
O903        H926   0.966       .  S
C904        O921   1.282       .  A
C904        O913   1.277       .  A
C904       C1204   1.487       .  S
O905       Ni924   1.928       .  S
O905        C911   1.272       .  A
O906       Ni924   1.904       .  S
O906        C908   1.268       .  A
Ni907       O910   1.924       .  S
Ni907       O912   1.901       .  S
C908        O918   1.270       .  A
C908       C1192   1.482       .  S
O909       Ni925   1.908       .  S
O909        C915   1.270       .  A
O910        C915   1.273       .  A
C911       C1225   1.482       .  S
O912        C914   1.270       .  A
O913       Ni924   1.912       .  S
C914        O920   1.273       .  A
C914       C1177   1.487       .  S
C915       C1213   1.472       .  S
H916        O917   0.966       .  S
O917       Ni925   1.901       .  S
O917       Ni919   1.905       .  S
O917       Ni924   1.896       .  S
O918       Ni919   1.923       .  S
Ni919       O923   1.923       .  S
Ni919       O921   1.934       .  S
O920       Ni925   1.936       .  S
C922        O923   1.270       .  A
C922       C1261   1.473       .  S
O927       Ni933   1.929       .  S
O927        C948   1.271       .  A
O928       Ni951   1.912       .  S
O928        C937   1.269       .  A
O929       Ni933   1.901       .  S
O929       Ni951   1.911       .  S
O929       Ni945   1.916       .  S
O929        H952   0.966       .  S
C930        O947   1.279       .  A
C930        O939   1.279       .  A
C930       C1156   1.493       .  S
O931       Ni950   1.928       .  S
O931        C937   1.272       .  A
O932       Ni950   1.910       .  S
O932        C934   1.269       .  A
Ni933       O936   1.928       .  S
Ni933       O938   1.903       .  S
C934        O944   1.267       .  A
C934       C1129   1.476       .  S
O935       Ni951   1.912       .  S
O935        C941   1.273       .  A
O936        C941   1.275       .  A
C937       C1228   1.484       .  S
O938        C940   1.270       .  A
O939       Ni950   1.920       .  S
C940        O946   1.277       .  A
C940       C1144   1.491       .  S
C941       C1168   1.479       .  S
H942        O943   0.966       .  S
O943       Ni951   1.909       .  S
O943       Ni945   1.901       .  S
O943       Ni950   1.899       .  S
O944       Ni945   1.913       .  S
Ni945       O949   1.909       .  S
Ni945       O947   1.929       .  S
O946       Ni951   1.943       .  S
C948        O949   1.266       .  A
C948       C1276   1.468       .  S
O953       Ni959   1.926       .  S
O953        C974   1.270       .  A
O954       Ni977   1.908       .  S
O954        C963   1.267       .  A
O955       Ni959   1.903       .  S
O955       Ni977   1.913       .  S
O955       Ni971   1.918       .  S
O955        H978   0.967       .  S
C956        O973   1.282       .  A
C956        O965   1.277       .  A
C956       C1117   1.490       .  S
O957       Ni976   1.928       .  S
O957        C963   1.272       .  A
O958       Ni976   1.908       .  S
O958        C960   1.270       .  A
Ni959       O962   1.931       .  S
Ni959       O964   1.902       .  S
C960        O970   1.269       .  A
C960       C1201   1.479       .  S
O961       Ni977   1.913       .  S
O961       C2455   1.272   1_455  A
O962       C2455   1.276   1_455  A
C963       C1093   1.482       .  S
O964        C966   1.268       .  A
O965       Ni976   1.915       .  S
C966        O972   1.274       .  A
C966       C1216   1.485       .  S
C967       O2449   1.272       .  A
C967       O2450   1.276       .  A
C967       C1105   1.481       .  S
H968        O969   0.966       .  S
O969       Ni977   1.906       .  S
O969       Ni971   1.902       .  S
O969       Ni976   1.895       .  S
O970       Ni971   1.919       .  S
Ni971       O975   1.915       .  S
Ni971       O973   1.934       .  S
O972       Ni977   1.938       .  S
C974        O975   1.268       .  A
C974       C1348   1.469       .  S
O979       Ni985   1.923       .  S
O979       C1000   1.267       .  A
O980      Ni1003   1.913       .  S
O980        C989   1.269       .  A
O981       Ni985   1.901       .  S
O981      Ni1003   1.914       .  S
O981       Ni997   1.915       .  S
O981       H1004   0.966       .  S
C982        O999   1.280       .  A
C982        O991   1.277       .  A
C982       C1132   1.483       .  S
O983      Ni1002   1.925       .  S
O983        C989   1.273       .  A
O984      Ni1002   1.909       .  S
O984        C986   1.269       .  A
Ni985       O988   1.922       .  S
Ni985       O990   1.893       .  S
C986        O996   1.268       .  A
C986       C1084   1.478       .  S
O987      Ni1003   1.916       .  S
O987       C2481   1.275       .  A
O988       C2481   1.276       .  A
C989       C1096   1.481       .  S
O990        C992   1.268       .  A
O991      Ni1002   1.916       .  S
C992        O998   1.273       .  A
C992       C1072   1.481       .  S
C993       O2475   1.275   1_455  A
C993       O2476   1.276   1_455  A
C993       C1141   1.481       .  S
H994        O995   0.966       .  S
O995      Ni1003   1.905       .  S
O995       Ni997   1.902       .  S
O995      Ni1002   1.896       .  S
O996       Ni997   1.915       .  S
Ni997      O1001   1.919       .  S
Ni997       O999   1.925       .  S
O998      Ni1003   1.932       .  S
C1000      O1001   1.266       .  A
C1000      C1360   1.469       .  S
O1005     Ni1011   1.919       .  S
O1005      C1026   1.269       .  A
O1006     Ni1029   1.916       .  S
O1006      C1015   1.269       .  A
O1007     Ni1011   1.905       .  S
O1007     Ni1029   1.919       .  S
O1007     Ni1023   1.923       .  S
O1007      H1030   0.966       .  S
C1008      O1025   1.279       .  A
C1008      O1017   1.278       .  A
C1008      C1189   1.487       .  S
O1009     Ni1028   1.927       .  S
O1009      C1015   1.272       .  A
O1010     Ni1028   1.907       .  S
O1010      C1012   1.269       .  A
Ni1011     O1014   1.923       .  S
Ni1011     O1016   1.903       .  S
C1012      O1022   1.270       .  A
C1012      C1120   1.484       .  S
O1013     Ni1029   1.908       .  S
C1015      C1057   1.485       .  S
O1016      C1018   1.271       .  A
O1017     Ni1028   1.915       .  S
C1018      O1024   1.280       .  A
C1018      C1108   1.493       .  S
C1019      C1180   1.474       .  S
H1020      O1021   0.966       .  S
O1021     Ni1029   1.900       .  S
O1021     Ni1023   1.904       .  S
O1021     Ni1028   1.898       .  S
O1022     Ni1023   1.923       .  S
Ni1023     O1027   1.917       .  S
Ni1023     O1025   1.925       .  S
O1024     Ni1029   1.954       .  S
C1026      O1027   1.269       .  A
C1026      C1420   1.471       .  S
O1031     Ni1037   1.920       .  S
O1031      C1052   1.271       .  A
O1032     Ni1055   1.912       .  S
O1032      C1041   1.268       .  A
O1033     Ni1037   1.907       .  S
O1033     Ni1055   1.916       .  S
O1033     Ni1049   1.924       .  S
O1033      H1056   0.965       .  S
C1034      O1051   1.280       .  A
C1034      O1043   1.277       .  A
C1034      C1081   1.483       .  S
O1035     Ni1054   1.927       .  S
O1035      C1041   1.272       .  A
O1036     Ni1054   1.908       .  S
O1036      C1038   1.269       .  A
Ni1037     O1040   1.926       .  S
Ni1037     O1042   1.906       .  S
C1038      O1048   1.271       .  A
C1038      C1153   1.487       .  S
O1039     Ni1055   1.902       .  S
C1041      C1060   1.485       .  S
O1042      C1044   1.272       .  A
O1043     Ni1054   1.914       .  S
C1044      O1050   1.278       .  A
C1044      C1165   1.492       .  S
C1045      C1069   1.470       .  S
H1046      O1047   0.966       .  S
O1047     Ni1055   1.895       .  S
O1047     Ni1049   1.897       .  S
O1047     Ni1054   1.894       .  S
O1048     Ni1049   1.928       .  S
Ni1049     O1053   1.907       .  S
Ni1049     O1051   1.926       .  S
O1050     Ni1055   1.947       .  S
C1052      O1053   1.266       .  A
C1052      C1240   1.464       .  S
C1057      C1058   1.407       .  A
C1057      C1062   1.412       .  A
C1058      H1063   1.083       .  S
C1059      C1060   1.412       .  A
C1059      O1064   1.371       .  S
C1060      C1061   1.404       .  A
C1061      H1065   1.084       .  S
C1062      O1066   1.372       .  S
O1064      H1068   0.992       .  S
O1066      H1067   0.992       .  S
C1069      C1070   1.403       .  A
C1069      C1074   1.404       .  A
C1070      C1071   1.403       .  A
C1070      H1075   1.083       .  S
C1071      C1072   1.413       .  A
C1071      O1076   1.372       .  S
C1072      C1073   1.406       .  A
C1073      C1074   1.394       .  A
C1073      H1077   1.084       .  S
C1074      O1078   1.373       .  S
O1076      H1080   0.992       .  S
O1078      H1079   0.992       .  S
C1081      C1082   1.405       .  A
C1081      C1086   1.413       .  A
C1082      C1083   1.400       .  A
C1082      H1087   1.084       .  S
C1083      C1084   1.412       .  A
C1083      O1088   1.372       .  S
C1084      C1085   1.402       .  A
C1085      C1086   1.397       .  A
C1085      H1089   1.084       .  S
C1086      O1090   1.372       .  S
O1088      H1092   0.992       .  S
O1090      H1091   0.992       .  S
C1093      C2582   1.407       .  A
C1093      C1098   1.410       .  A
C1094      C2581   1.407       .  A
C1094      C1095   1.406   1_554  A
C1094      H1099   1.083       .  S
C1095      C1096   1.410       .  A
C1095      O1100   1.371       .  S
C1096      C2585   1.404       .  A
C1097      C2584   1.404       .  A
C1097      C1098   1.394   1_656  A
C1097      H1101   1.084       .  S
C1098      O1102   1.373       .  S
O1100      H1104   0.992       .  S
O1102      H1103   0.992       .  S
C1105      C1106   1.405       .  A
C1105      C1110   1.407       .  A
C1106      C1107   1.406       .  A
C1106      H1111   1.084       .  S
C1107      C1108   1.415       .  A
C1107      O1112   1.371       .  S
C1108      C1109   1.408       .  A
C1109      C1110   1.396       .  A
C1109      H1113   1.083       .  S
C1110      O1114   1.372       .  S
O1112      H1116   0.992       .  S
O1114      H1115   0.992       .  S
C1117      C1118   1.407       .  A
C1117      C1122   1.415       .  A
C1118      C1119   1.403       .  A
C1118      H1123   1.083       .  S
C1119      C1120   1.412       .  A
C1119      O1124   1.372       .  S
C1120      C1121   1.403       .  A
C1121      C1122   1.397       .  A
C1121      H1125   1.084       .  S
C1122      O1126   1.372       .  S
O1124      H1128   0.992       .  S
O1126      H1127   0.992       .  S
C1129      C1130   1.402       .  A
C1129      C1134   1.411       .  A
C1130      C1131   1.397       .  A
C1130      H1135   1.084       .  S
C1131      C1132   1.414       .  A
C1131      O1136   1.372       .  S
C1132      C1133   1.405       .  A
C1133      C1134   1.399       .  A
C1133      H1137   1.083       .  S
C1134      O1138   1.372       .  S
O1136      H1140   0.992       .  S
O1138      H1139   0.992       .  S
C1141      C1142   1.402       .  A
C1141      C1146   1.410       .  A
C1142      C1143   1.398       .  A
C1142      H1147   1.084       .  S
C1145      C1146   1.404       .  A
C1145      H1149   1.083       .  S
C1146      O1150   1.372       .  S
O1148      H1152   0.992       .  S
O1150      H1151   0.992       .  S
C1153      C1154   1.406       .  A
C1153      C1158   1.410       .  A
C1154      C1155   1.405       .  A
C1154      H1159   1.084       .  S
C1155      C1156   1.415       .  A
C1155      O1160   1.371       .  S
C1156      C1157   1.407       .  A
C1157      C1158   1.397       .  A
C1157      H1161   1.083       .  S
C1158      O1162   1.372       .  S
O1160      H1164   0.992       .  S
O1162      H1163   0.992       .  S
C1165      C2654   1.408       .  A
C1165      C2658   1.416       .  A
C1166      C2653   1.408   1_455  A
C1166      C1167   1.398       .  A
C1166      H1171   1.083       .  S
C1167      C1168   1.408       .  A
C1167      O1172   1.372       .  S
C1168      C1169   1.403       .  A
C1169      C1170   1.404       .  A
C1169      H1173   1.084       .  S
C1170      C2653   1.416   1_455  A
C1170      O2662   1.372   1_455  S
O1172      H1176   0.992       .  S
O1174      C2658   1.372       .  S
O1174      H1175   0.992       .  S
C1177      C2666   1.406   1_455  A
C1177      C2670   1.416   1_455  A
C1178      C2665   1.406       .  A
C1178      C1179   1.393       .  A
C1178      H1183   1.083       .  S
C1179      C1180   1.407       .  A
C1179      O1184   1.372       .  S
C1180      C1181   1.403       .  A
C1181      C1182   1.404       .  A
C1181      H1185   1.084       .  S
C1182      C2665   1.416       .  A
C1182      O2674   1.371       .  S
O1184      H1188   0.992       .  S
O1186      C2670   1.371   1_455  S
O1186      H1187   0.992       .  S
C1189      C1190   1.407       .  A
C1189      C1194   1.413       .  A
C1190      C1191   1.396       .  A
C1190      H1195   1.083       .  S
C1191      C1192   1.409       .  A
C1191      O1196   1.373       .  S
C1192      C1193   1.406       .  A
C1193      C1194   1.402       .  A
C1193      H1197   1.084       .  S
C1194      O1198   1.371       .  S
O1196      H1200   0.992       .  S
O1198      H1199   0.992       .  S
C1201      C1202   1.401       .  A
C1201      C1206   1.412       .  A
C1202      C1203   1.396       .  A
C1202      H1207   1.084       .  S
C1203      C1204   1.416       .  A
C1203      O1208   1.372       .  S
C1204      C1205   1.406       .  A
C1205      C1206   1.403       .  A
C1205      H1209   1.083       .  S
C1206      O1210   1.372       .  S
O1208      H1212   0.992       .  S
O1210      H1211   0.992       .  S
C1213      C1214   1.401       .  A
C1213      C1218   1.407       .  A
C1214      C1215   1.398       .  A
C1214      H1219   1.084       .  S
C1217      C1218   1.402       .  A
C1217      H1221   1.083       .  S
C1218      O1222   1.372       .  S
O1220      H1224   0.992       .  S
O1222      H1223   0.992       .  S
C1225      C1226   1.402       .  A
C1225      C1230   1.411       .  A
C1226      C1227   1.394   1_554  A
C1226      H1231   1.084       .  S
C1227      C1228   1.412       .  A
C1227      O1232   1.372       .  S
C1228      C1229   1.407       .  A
C1229      C1230   1.407   1_556  A
C1229      H1233   1.083       .  S
C1230      O1234   1.371       .  S
O1232      H1236   0.992       .  S
O1234      H1235   0.992       .  S
C1237      C1238   1.403       .  A
C1237      C1242   1.405       .  A
C1238      C1239   1.398       .  A
C1238      H1243   1.084       .  S
C1239      C1240   1.405       .  A
C1239      O1244   1.371       .  S
C1240      C1241   1.403       .  A
C1241      C1242   1.399       .  A
C1241      H1245   1.084       .  S
C1242      O1246   1.372       .  S
O1244      H1248   0.992       .  S
O1246      H1247   0.992       .  S
C1249      C1250   1.404       .  A
C1249      C1254   1.411       .  A
C1250      C2739   1.394       .  A
C1250      H1255   1.084       .  S
C1251      C2738   1.394   1_455  A
C1251      C1252   1.411       .  A
C1251      O1256   1.372       .  S
C1252      C1253   1.407       .  A
C1253      C2742   1.408   1_455  A
C1253      H1257   1.083       .  S
C1254      C2741   1.408       .  A
C1254      O1258   1.371       .  S
O1256      H2748   0.992       .  S
O1258      H2747   0.992       .  S
H1259      O2746   0.992       .  S
H1260      O2744   0.992       .  S
C1261      C1262   1.404       .  A
C1261      C1266   1.407       .  A
C1262      C1263   1.400       .  A
C1262      H1267   1.084       .  S
C1263      C1264   1.406       .  A
C1263      O1268   1.371       .  S
C1264      C1265   1.405       .  A
C1265      C1266   1.406       .  A
C1265      H1269   1.084       .  S
C1266      O1270   1.372       .  S
O1268      H1272   0.992       .  S
O1270      H1271   0.992       .  S
C1273      C1274   1.401       .  A
C1273      C1278   1.408       .  A
C1274      C1275   1.400       .  A
C1274      H1279   1.084       .  S
C1275      C1276   1.407       .  A
C1275      O1280   1.372       .  S
C1276      C1277   1.401       .  A
C1277      C1278   1.402       .  A
C1277      H1281   1.084       .  S
C1278      O1282   1.371       .  S
O1280      H1284   0.992       .  S
O1282      H1283   0.992       .  S
C1285      C1286   1.406       .  A
C1285      C1290   1.409       .  A
C1286      C1287   1.404       .  A
C1286      H1291   1.084       .  S
C1287      C1288   1.414       .  A
C1287      O1292   1.372       .  S
C1288      C1289   1.406       .  A
C1289      C1290   1.395       .  A
C1289      H1293   1.084       .  S
C1290      O1294   1.372       .  S
O1292      H1296   0.992       .  S
O1294      H1295   0.992       .  S
C1297      C1298   1.407       .  A
C1297      C1302   1.415       .  A
C1298      C1299   1.394       .  A
C1298      H1303   1.084       .  S
C1299      C1300   1.406       .  A
C1299      O1304   1.372       .  S
C1300      C1301   1.402       .  A
C1301      C1302   1.404       .  A
C1301      H1305   1.084       .  S
C1302      O1306   1.372       .  S
O1304      H1308   0.992       .  S
O1306      H1307   0.992       .  S
C1309      C1310   1.406       .  A
C1309      C1314   1.411       .  A
C1310      H1315   1.083       .  S
C1311      C1312   1.410       .  A
C1311      O1316   1.371       .  S
C1312      C1313   1.405       .  A
C1313      H1317   1.084       .  S
C1314      O1318   1.372       .  S
O1316      H1320   0.992       .  S
O1318      H1319   0.992       .  S
C1321      C1322   1.401       .  A
C1321      C1326   1.408       .  A
C1322      C1323   1.398       .  A
C1322      H1327   1.084       .  S
C1323      C1324   1.414       .  A
C1323      O1328   1.372       .  S
C1324      C1325   1.409       .  A
C1325      C1326   1.403       .  A
C1325      H1329   1.083       .  S
O1328      H1332   0.992       .  S
O1330      H1331   0.992       .  S
C1333      C1334   1.408       .  A
C1333      C1338   1.413       .  A
C1334      C1335   1.398       .  A
C1334      H1339   1.083       .  S
C1335      C1336   1.407       .  A
C1335      O1340   1.372       .  S
C1336      C1337   1.404       .  A
C1337      C1338   1.401       .  A
C1337      H1341   1.084       .  S
C1338      O1342   1.372       .  S
O1340      H1344   0.992       .  S
O1342      H1343   0.992       .  S
C1345      C1346   1.402       .  A
C1345      C1350   1.407       .  A
C1346      C1347   1.403       .  A
C1346      H1351   1.084       .  S
C1347      C1348   1.409       .  A
C1347      O1352   1.371       .  S
C1348      C1349   1.401       .  A
C1349      C1350   1.399       .  A
C1349      H1353   1.084       .  S
C1350      O1354   1.372       .  S
O1352      H1356   0.992       .  S
O1354      H1355   0.991       .  S
C1357      C1358   1.402       .  A
C1357      C1362   1.407       .  A
C1358      C1359   1.402       .  A
C1358      H1363   1.084       .  S
C1359      C1360   1.408       .  A
C1359      O1364   1.371       .  S
C1360      C1361   1.402       .  A
C1361      C1362   1.401       .  A
C1361      H1365   1.084       .  S
C1362      O1366   1.372       .  S
O1364      H1368   0.992       .  S
O1366      H1367   0.992       .  S
C1369      C1370   1.402       .  A
C1369      C1374   1.412       .  A
C1370      C1371   1.396       .  A
C1370      H1375   1.084       .  S
C1371      C1372   1.416       .  A
C1371      O1376   1.372       .  S
C1372      C1373   1.407       .  A
C1373      C1374   1.403       .  A
C1373      H1377   1.083       .  S
C1374      O1378   1.371       .  S
O1376      H1380   0.992       .  S
O1378      H1379   0.992       .  S
C1381      C1382   1.404       .  A
C1381      C1386   1.407       .  A
C1382      C1383   1.405       .  A
C1382      H1387   1.084       .  S
C1383      C2872   1.416       .  A
C1383      O1388   1.371   1_455  S
C1384      C2871   1.416       .  A
C1384      C2873   1.407       .  A
C1385      C2872   1.407       .  A
C1385      C1386   1.397       .  A
C1385      H2877   1.083       .  S
O1388      H1392   0.992       .  S
H1389      C2873   1.083       .  S
O1390      H1391   0.992       .  S
C1393      C1394   1.407       .  A
C1393      C1398   1.414       .  A
C1394      C1395   1.399       .  A
C1394      H1399   1.083       .  S
C1395      C1396   1.409       .  A
C1395      O1400   1.372       .  S
C1396      C1397   1.406       .  A
C1397      C1398   1.402       .  A
C1397      H1401   1.084       .  S
C1398      O1402   1.372       .  S
O1400      H1404   0.992       .  S
O1402      H1403   0.992       .  S
C1405      C1406   1.403       .  A
C1405      C1410   1.411       .  A
C1406      C1407   1.398       .  A
C1406      H1411   1.084       .  S
C1409      C1410   1.408       .  A
C1409      H1413   1.083   1_565  S
C1410      O1414   1.371       .  S
O1412      H1416   0.992       .  S
O1414      H1415   0.992       .  S
C1417      C1418   1.404       .  A
C1417      C1422   1.406       .  A
C1418      C1419   1.401       .  A
C1418      H1423   1.084       .  S
C1419      C1420   1.405       .  A
C1419      O1424   1.372       .  S
C1420      C1421   1.405       .  A
C1421      C1422   1.404       .  A
C1421      H1425   1.084       .  S
C1422      O1426   1.371       .  S
O1424      H1428   0.992       .  S
O1426      H1427   0.992       .  S
C1429      C1430   1.407       .  A
C1429      C1434   1.414       .  A
C1430      C1431   1.394       .  A
C1430      H1435   1.083       .  S
C1431      C1432   1.406       .  A
C1431      O1436   1.373       .  S
C1432      C1433   1.404       .  A
C1433      C1434   1.406       .  A
C1433      H1437   1.084       .  S
C1434      O1438   1.371       .  S
O1436      H1440   0.992       .  S
O1438      H1439   0.992       .  S
C1441      C1442   1.401       .  A
C1441      C1446   1.408       .  A
C1442      C1443   1.396       .  A
C1442      H1447   1.084       .  S
C1443      O1448   1.371       .  S
C1445      C1446   1.404       .  A
C1446      O2938   1.372       .  S
O1448      H1452   0.992       .  S
O1450      C2934   1.372       .  S
O1450      H1451   0.992       .  S
C1453      C1454   1.405       .  A
C1453      C1458   1.408       .  A
C1454      C1455   1.402       .  A
C1454      H1459   1.084       .  S
C1455      C1456   1.413       .  A
C1455      O1460   1.372       .  S
C1456      C1457   1.408       .  A
C1457      C1458   1.399       .  A
C1457      H1461   1.083       .  S
C1458      O1462   1.372       .  S
O1460      H1464   0.992       .  S
O1462      H1463   0.992       .  S
C1465      C2954   1.405   1_455  A
C1465      C2958   1.414   1_455  A
C1466      C2953   1.405       .  A
C1466      C1467   1.395       .  A
C1466      H1471   1.084       .  S
C1467      C1468   1.404       .  A
C1467      O1472   1.372       .  S
C1468      C1469   1.402       .  A
C1469      C1470   1.402       .  A
C1469      H1473   1.084       .  S
C1470      C2953   1.414       .  A
C1470      O2962   1.372       .  S
O1472      H1476   0.992       .  S
O1474      C2958   1.372   1_455  S
O1474      H1475   0.992       .  S
C1477      C1478   1.406       .  A
C1477      C1482   1.412       .  A
C1478      C1479   1.396       .  A
C1478      H1483   1.084       .  S
C1479      C1480   1.406       .  A
C1479      O1484   1.372       .  S
C1480      C1481   1.403       .  A
C1481      C1482   1.399       .  A
C1481      H1485   1.084       .  S
C1482      O1486   1.372       .  S
O1484      H1488   0.992       .  S
O1486      H1487   0.992       .  S
O1489     Ni1495   1.920       .  S
O1489      C1510   1.270       .  A
O1490     Ni1513   1.912       .  S
O1490      C1499   1.268       .  A
O1491     Ni1495   1.908       .  S
O1491     Ni1513   1.919       .  S
O1491     Ni1507   1.926       .  S
O1491      H1514   0.966       .  S
C1492      O1509   1.278       .  A
C1492      O1501   1.277       .  A
C1492      C2221   1.480       .  S
O1493     Ni1512   1.926       .  S
O1493      C1499   1.272       .  A
O1494     Ni1512   1.907       .  S
O1494      C1496   1.269       .  A
Ni1495     O1498   1.924       .  S
Ni1495     O1500   1.903       .  S
C1496      O1506   1.271       .  A
C1496      C2197   1.480       .  S
O1497     Ni1513   1.904       .  S
O1497      C1503   1.267       .  A
O1498      C1503   1.271       .  A
C1499      C2173   1.488       .  S
O1500      C1502   1.271       .  A
O1501     Ni1512   1.915       .  S
C1502      O1508   1.279       .  A
C1502      C2188   1.490       .  S
C1503      C2212   1.466       .  S
H1504      O1505   0.966       .  S
O1505     Ni1513   1.898       .  S
O1505     Ni1507   1.901       .  S
O1505     Ni1512   1.898       .  S
O1506     Ni1507   1.924       .  S
Ni1507     O1511   1.917       .  S
Ni1507     O1509   1.920       .  S
O1508     Ni1513   1.949       .  S
C1510      O1511   1.269       .  A
C1510      C2161   1.472       .  S
O1515     Ni1521   1.933       .  S
O1515      C1536   1.272       .  A
O1516     Ni1539   1.912       .  S
O1516      C1525   1.268       .  A
O1517     Ni1521   1.901       .  S
O1517     Ni1539   1.912       .  S
O1517     Ni1533   1.915       .  S
O1517      H1540   0.967       .  S
C1518      O1535   1.280       .  A
C1518      O1527   1.279       .  A
C1518      C2137   1.489       .  S
O1519     Ni1538   1.929       .  S
O1519      C1525   1.273       .  A
O1520     Ni1538   1.909       .  S
O1520      C1522   1.270       .  A
Ni1521     O1524   1.932       .  S
Ni1521     O1526   1.906       .  S
C1522      O1532   1.270       .  A
C1522      C2113   1.483       .  S
O1523     Ni1539   1.917       .  S
O1523      C1529   1.275       .  A
O1524      C1529   1.278       .  A
C1525      C2176   1.475       .  S
O1526      C1528   1.270       .  A
O1527     Ni1538   1.921       .  S
C1528      O1534   1.274       .  A
C1528      C2128   1.491   1_655  S
C1529      C2149   1.487       .  S
H1530      O1531   0.966       .  S
O1531     Ni1539   1.908       .  S
O1531     Ni1533   1.898       .  S
O1531     Ni1538   1.894       .  S
O1532     Ni1533   1.922       .  S
Ni1533     O1537   1.911       .  S
Ni1533     O1535   1.930       .  S
O1534     Ni1539   1.938       .  S
C1536      O1537   1.267       .  A
C1536      C2101   1.470       .  S
O1541     Ni1547   1.927       .  S
O1541      C1562   1.269       .  A
O1542     Ni1565   1.906       .  S
O1542      C1551   1.267       .  A
O1543     Ni1547   1.901       .  S
O1543     Ni1565   1.910       .  S
O1543     Ni1559   1.915       .  S
O1543      H1566   0.967       .  S
C1544      O1561   1.280       .  A
C1544      O1553   1.278       .  A
C1544      C2077   1.486       .  S
O1545     Ni1564   1.931       .  S
O1545      C1551   1.272       .  A
O1546     Ni1564   1.906       .  S
O1546      C1548   1.268       .  A
Ni1547     O1550   1.928       .  S
Ni1547     O1552   1.901       .  S
C1548      O1558   1.269       .  A
C1548      C2224   1.472       .  S
O1549     Ni1565   1.911       .  S
O1549      C2299   1.273       .  A
O1550      C2299   1.277       .  A
C1551      C2053   1.481       .  S
O1552      C1554   1.269       .  A
O1553     Ni1564   1.919       .  S
C1554      O1560   1.272       .  A
C1554      C2209   1.480       .  S
C1555      O2293   1.273   1_545  A
C1555      O2294   1.277   1_545  A
C1555      C2065   1.475       .  S
H1556      O1557   0.966       .  S
O1557     Ni1565   1.907       .  S
O1557     Ni1559   1.902       .  S
O1557     Ni1564   1.898       .  S
O1558     Ni1559   1.917       .  S
Ni1559     O1563   1.915       .  S
Ni1559     O1561   1.928       .  S
O1560     Ni1565   1.932       .  S
C1562      O1563   1.268       .  A
C1562      C2089   1.469       .  S
O1567     Ni1573   1.924       .  S
O1567      C1588   1.269       .  A
O1568     Ni1591   1.911       .  S
O1568      C1577   1.269       .  A
O1569     Ni1573   1.903       .  S
O1569     Ni1591   1.916       .  S
O1569     Ni1585   1.920       .  S
O1569      H1592   0.966       .  S
C1570      O1587   1.282       .  A
C1570      O1579   1.277       .  A
C1570      C2116   1.490       .  S
O1571     Ni1590   1.928       .  S
O1571      C1577   1.272       .  A
O1572     Ni1590   1.905       .  S
O1572      C1574   1.268       .  A
Ni1573     O1576   1.927       .  S
Ni1573     O1578   1.900       .  S
C1574      O1584   1.271       .  A
C1574      C2029   1.481       .  S
O1575     Ni1591   1.914       .  S
O1575      C2325   1.273   1_545  A
O1576      C2325   1.275   1_545  A
C1577      C2056   1.482       .  S
O1578      C1580   1.269       .  A
O1579     Ni1590   1.914       .  S
C1580      O1586   1.274       .  A
C1580      C2041   1.487       .  S
C1581      O2319   1.273       .  A
C1581      O2320   1.275       .  A
C1581      C2125   1.478       .  S
H1582      O1583   0.966       .  S
O1583     Ni1591   1.903       .  S
O1583     Ni1585   1.898       .  S
O1583     Ni1590   1.891       .  S
O1584     Ni1585   1.925       .  S
Ni1585     O1589   1.915       .  S
Ni1585     O1587   1.934       .  S
O1586     Ni1591   1.939       .  S
C1588      O1589   1.268       .  A
C1588      C2017   1.468       .  S
O1593     Ni1599   1.929       .  S
O1593      C1614   1.272       .  A
O1594     Ni1617   1.914       .  S
O1594      C1603   1.269       .  A
O1595     Ni1599   1.903       .  S
O1595     Ni1617   1.916       .  S
O1595     Ni1611   1.920       .  S
O1595      H1618   0.966       .  S
C1596      O1613   1.281       .  A
C1596      O1605   1.278       .  A
C1596      C2200   1.488       .  S
O1597     Ni1616   1.926       .  S
O1597      C1603   1.272       .  A
O1598     Ni1616   1.907       .  S
O1598      C1600   1.269       .  A
Ni1599     O1602   1.930       .  S
Ni1599     O1604   1.903       .  S
C1600      O1610   1.270       .  A
C1600      C2080   1.476       .  S
O1601     Ni1617   1.908       .  S
C1603      C1996   1.484       .  S
O1604      C1606   1.270       .  A
O1605     Ni1616   1.917       .  S
C1606      O1612   1.277       .  A
C1606      C2068   1.489       .  S
C1607      C2185   1.476       .  S
H1608      O1609   0.966       .  S
O1609     Ni1617   1.903       .  S
O1609     Ni1611   1.900       .  S
O1609     Ni1616   1.895       .  S
O1610     Ni1611   1.921       .  S
Ni1611     O1615   1.917       .  S
Ni1611     O1613   1.930       .  S
O1612     Ni1617   1.945       .  S
C1614      O1615   1.269       .  A
C1614      C2008   1.474       .  S
O1619     Ni1625   1.912       .  S
O1619      C1640   1.268       .  A
O1620     Ni1643   1.913       .  S
O1620      C1629   1.269       .  A
O1621     Ni1625   1.911       .  S
O1621     Ni1643   1.921       .  S
O1621     Ni1637   1.935       .  S
O1621      H1644   0.966       .  S
C1622      O1639   1.277       .  A
C1622      O1631   1.278       .  A
C1622      C2032   1.486       .  S
O1623     Ni1642   1.927       .  S
O1623      C1629   1.272       .  A
O1624     Ni1642   1.906       .  S
O1624      C1626   1.268       .  A
Ni1625     O1628   1.919       .  S
Ni1625     O1630   1.903       .  S
C1626      O1636   1.270       .  A
C1626      C2140   1.483       .  S
O1627     Ni1643   1.910   1_455  S
C1629      C1993   1.484       .  S
O1630      C1632   1.272       .  A
O1631     Ni1642   1.920       .  S
C1632      O1638   1.283       .  A
C1632      C2152   1.497       .  S
C1633      C2044   1.472       .  S
H1634      O1635   0.966       .  S
O1635     Ni1643   1.899       .  S
O1635     Ni1637   1.900       .  S
O1635     Ni1642   1.902       .  S
O1636     Ni1637   1.925       .  S
Ni1637     O1641   1.907       .  S
Ni1637     O1639   1.921       .  S
O1638     Ni1643   1.960       .  S
C1640      O1641   1.265       .  A
C1640      C1981   1.463       .  S
O1645     Ni1651   1.921       .  S
O1645      C1666   1.269       .  A
O1646     Ni1669   1.911       .  S
O1646      C1655   1.266       .  A
O1647     Ni1651   1.907       .  S
O1647     Ni1669   1.919       .  S
O1647     Ni1663   1.923       .  S
O1647      H1670   0.966       .  S
C1648      O1665   1.282       .  A
C1648      O1657   1.277       .  A
C1648      C1948   1.487       .  S
O1649     Ni1668   1.928       .  S
O1649      C1655   1.272       .  A
O1650     Ni1668   1.904       .  S
O1650      C1652   1.268       .  A
Ni1651     O1654   1.924       .  S
Ni1651     O1656   1.901       .  S
C1652      O1662   1.270       .  A
C1652      C1936   1.482       .  S
O1653     Ni1669   1.908       .  S
O1653      C1659   1.270       .  A
O1654      C1659   1.273       .  A
C1655      C1969   1.482       .  S
O1656      C1658   1.270       .  A
O1657     Ni1668   1.912       .  S
C1658      O1664   1.273       .  A
C1658      C1921   1.487       .  S
C1659      C1957   1.472       .  S
H1660      O1661   0.966       .  S
O1661     Ni1669   1.901       .  S
O1661     Ni1663   1.905       .  S
O1661     Ni1668   1.896       .  S
O1662     Ni1663   1.923       .  S
Ni1663     O1667   1.923       .  S
Ni1663     O1665   1.934       .  S
O1664     Ni1669   1.936       .  S
C1666      O1667   1.270       .  A
C1666      C2005   1.473       .  S
O1671     Ni1677   1.929       .  S
O1671      C1692   1.271       .  A
O1672     Ni1695   1.912       .  S
O1672      C1681   1.269       .  A
O1673     Ni1677   1.901       .  S
O1673     Ni1695   1.911       .  S
O1673     Ni1689   1.916       .  S
O1673      H1696   0.966       .  S
C1674      O1691   1.279       .  A
C1674      O1683   1.279       .  A
C1674      C1900   1.493       .  S
O1675     Ni1694   1.928       .  S
O1675      C1681   1.272       .  A
O1676     Ni1694   1.910       .  S
O1676      C1678   1.269       .  A
Ni1677     O1680   1.928       .  S
Ni1677     O1682   1.903       .  S
C1678      O1688   1.267       .  A
C1678      C1873   1.476       .  S
O1679     Ni1695   1.912       .  S
O1679      C1685   1.273       .  A
O1680      C1685   1.275       .  A
C1681      C1972   1.484       .  S
O1682      C1684   1.270       .  A
O1683     Ni1694   1.920       .  S
C1684      O1690   1.277       .  A
C1684      C1888   1.491   1_545  S
C1685      C1912   1.479       .  S
H1686      O1687   0.966       .  S
O1687     Ni1695   1.909       .  S
O1687     Ni1689   1.901       .  S
O1687     Ni1694   1.899       .  S
O1688     Ni1689   1.913       .  S
Ni1689     O1693   1.909       .  S
Ni1689     O1691   1.929       .  S
O1690     Ni1695   1.943       .  S
C1692      O1693   1.266       .  A
C1692      C2020   1.468       .  S
O1697     Ni1703   1.926       .  S
O1697      C1718   1.270       .  A
O1698     Ni1721   1.908       .  S
O1698      C1707   1.267       .  A
O1699     Ni1703   1.903       .  S
O1699     Ni1721   1.913       .  S
O1699     Ni1715   1.918       .  S
O1699      H1722   0.967       .  S
C1700      O1717   1.282       .  A
C1700      O1709   1.277       .  A
C1700      C1861   1.490       .  S
O1701     Ni1720   1.928       .  S
O1701      C1707   1.272       .  A
O1702     Ni1720   1.908       .  S
O1702      C1704   1.270       .  A
Ni1703     O1706   1.931       .  S
Ni1703     O1708   1.902       .  S
C1704      O1714   1.269       .  A
C1704      C1945   1.479       .  S
O1705     Ni1721   1.913       .  S
C1707      C1837   1.482       .  S
O1708      C1710   1.268       .  A
O1709     Ni1720   1.915       .  S
C1710      O1716   1.274       .  A
C1710      C1960   1.485       .  S
C1711      C1849   1.481       .  S
H1712      O1713   0.966       .  S
O1713     Ni1721   1.906       .  S
O1713     Ni1715   1.902       .  S
O1713     Ni1720   1.895       .  S
O1714     Ni1715   1.919       .  S
Ni1715     O1719   1.915       .  S
Ni1715     O1717   1.934       .  S
O1716     Ni1721   1.938       .  S
C1718      O1719   1.268       .  A
C1718      C2092   1.469       .  S
O1723     Ni1729   1.923       .  S
O1723      C1744   1.267       .  A
O1724     Ni1747   1.913       .  S
O1724      C1733   1.269       .  A
O1725     Ni1729   1.901       .  S
O1725     Ni1747   1.914       .  S
O1725     Ni1741   1.915       .  S
O1725      H1748   0.966       .  S
C1726      O1743   1.280       .  A
C1726      O1735   1.277       .  A
C1726      C1876   1.483       .  S
O1727     Ni1746   1.925       .  S
O1727      C1733   1.273       .  A
O1728     Ni1746   1.909       .  S
O1728      C1730   1.269       .  A
Ni1729     O1732   1.922       .  S
Ni1729     O1734   1.893       .  S
C1730      O1740   1.268       .  A
C1730      C1828   1.478       .  S
O1731     Ni1747   1.916       .  S
C1733      C1840   1.481       .  S
O1734      C1736   1.268       .  A
O1735     Ni1746   1.916       .  S
C1736      O1742   1.273       .  A
C1736      C1816   1.481       .  S
C1737      C1885   1.481       .  S
H1738      O1739   0.966       .  S
O1739     Ni1747   1.905       .  S
O1739     Ni1741   1.902       .  S
O1739     Ni1746   1.896       .  S
O1740     Ni1741   1.915       .  S
Ni1741     O1745   1.919       .  S
Ni1741     O1743   1.925       .  S
O1742     Ni1747   1.932       .  S
C1744      O1745   1.266       .  A
C1744      C2104   1.469       .  S
O1749     Ni1755   1.919       .  S
O1749      C1770   1.269       .  A
O1750     Ni1773   1.916       .  S
O1750      C1759   1.269       .  A
O1751     Ni1755   1.905       .  S
O1751     Ni1773   1.919       .  S
O1751     Ni1767   1.923       .  S
O1751      H1774   0.966       .  S
C1752      O1769   1.279       .  A
C1752      O1761   1.278       .  A
C1752      C1933   1.487       .  S
O1753     Ni1772   1.927       .  S
O1753      C1759   1.272       .  A
O1754     Ni1772   1.907       .  S
O1754      C1756   1.269       .  A
Ni1755     O1758   1.923       .  S
Ni1755     O1760   1.903       .  S
C1756      O1766   1.270       .  A
C1756      C1864   1.484       .  S
O1757     Ni1773   1.908       .  S
O1757      C2507   1.268       .  A
O1758      C2507   1.272       .  A
C1759      C1801   1.485       .  S
O1760      C1762   1.271       .  A
O1761     Ni1772   1.915       .  S
C1762      O1768   1.280       .  A
C1762      C1852   1.493       .  S
C1763      O2501   1.268   1_545  A
C1763      O2502   1.272   1_545  A
C1763      C1924   1.474       .  S
H1764      O1765   0.966       .  S
O1765     Ni1773   1.900       .  S
O1765     Ni1767   1.904       .  S
O1765     Ni1772   1.898       .  S
O1766     Ni1767   1.924       .  S
Ni1767     O1771   1.917       .  S
Ni1767     O1769   1.925       .  S
O1768     Ni1773   1.954       .  S
C1770      O1771   1.269       .  A
C1770      C2164   1.471       .  S
O1775     Ni1781   1.920       .  S
O1775      C1796   1.271       .  A
O1776     Ni1799   1.912       .  S
O1776      C1785   1.268       .  A
O1777     Ni1781   1.907       .  S
O1777     Ni1799   1.916       .  S
O1777     Ni1793   1.924       .  S
O1777      H1800   0.965       .  S
C1778      O1795   1.280       .  A
C1778      O1787   1.277       .  A
C1778      C1825   1.483       .  S
O1779     Ni1798   1.927       .  S
O1779      C1785   1.272       .  A
O1780     Ni1798   1.908       .  S
O1780      C1782   1.269       .  A
Ni1781     O1784   1.926       .  S
Ni1781     O1786   1.906       .  S
C1782      O1792   1.271       .  A
C1782      C1897   1.487       .  S
O1783     Ni1799   1.902   1_565  S
O1783      C2533   1.267       .  A
O1784      C2533   1.273   1_545  A
C1785      C1804   1.485       .  S
O1786      C1788   1.272       .  A
O1787     Ni1798   1.914       .  S
C1788      O1794   1.278       .  A
C1788      C1909   1.492       .  S
C1789      O2527   1.267       .  A
C1789      O2528   1.273       .  A
C1789      C1813   1.470       .  S
H1790      O1791   0.966       .  S
O1791     Ni1799   1.895       .  S
O1791     Ni1793   1.897       .  S
O1791     Ni1798   1.894       .  S
O1792     Ni1793   1.928       .  S
Ni1793     O1797   1.907       .  S
Ni1793     O1795   1.926       .  S
O1794     Ni1799   1.947       .  S
C1796      O1797   1.266       .  A
C1796      C1984   1.464       .  S
C1801      C1802   1.407       .  A
C1801      C1806   1.412       .  A
C1802      C2547   1.408   1_554  A
C1802      H1807   1.083       .  S
C1803      C2546   1.408   1_546  A
C1803      C1804   1.412       .  A
C1803      O1808   1.371       .  S
C1804      C1805   1.404       .  A
C1805      C2550   1.394   1_546  A
C1805      H1809   1.084       .  S
C1806      C2549   1.394   1_554  A
C1806      O1810   1.372       .  S
O1808      H1812   0.992   1_545  S
O1810      H1811   0.992       .  S
C1813      C1814   1.403       .  A
C1813      C1818   1.404       .  A
C1814      C1815   1.403       .  A
C1814      H1819   1.083       .  S
C1815      C1816   1.413       .  A
C1815      O1820   1.372       .  S
C1816      C1817   1.406       .  A
C1817      C1818   1.394       .  A
C1817      H1821   1.084       .  S
C1818      O1822   1.373       .  S
O1820      H1824   0.992       .  S
O1822      H1823   0.992       .  S
C1825      C1826   1.405       .  A
C1825      C1830   1.413       .  A
C1826      C1827   1.400       .  A
C1826      H1831   1.084       .  S
C1827      C1828   1.412       .  A
C1827      O1832   1.372       .  S
C1828      C1829   1.402       .  A
C1829      C1830   1.397       .  A
C1829      H1833   1.084       .  S
C1830      O1834   1.372       .  S
O1832      H1836   0.992       .  S
O1834      H1835   0.992       .  S
C1837      C1842   1.410       .  A
C1838      C1839   1.406   1_454  A
C1838      H1843   1.083       .  S
C1839      C1840   1.410       .  A
C1839      O1844   1.371       .  S
C1841      C1842   1.394   1_556  A
C1841      H1845   1.084       .  S
C1842      O1846   1.373       .  S
O1844      H1848   0.992       .  S
O1846      H1847   0.992       .  S
C1849      C1850   1.405       .  A
C1849      C1854   1.407       .  A
C1850      C1851   1.406       .  A
C1850      H1855   1.084       .  S
C1851      C1852   1.415       .  A
C1851      O1856   1.371       .  S
C1852      C1853   1.408       .  A
C1853      C1854   1.396       .  A
C1853      H1857   1.083       .  S
C1854      O1858   1.372       .  S
O1856      H1860   0.992       .  S
O1858      H1859   0.992       .  S
C1861      C1862   1.407       .  A
C1861      C1866   1.415       .  A
C1862      C1863   1.403       .  A
C1862      H1867   1.083       .  S
C1863      C1864   1.412       .  A
C1863      O1868   1.372       .  S
C1864      C1865   1.403       .  A
C1865      C1866   1.397       .  A
C1865      H1869   1.084       .  S
C1866      O1870   1.372       .  S
O1868      H1872   0.992       .  S
O1870      H1871   0.992       .  S
C1873      C1874   1.402       .  A
C1873      C1878   1.411       .  A
C1874      C1875   1.397       .  A
C1874      H1879   1.084       .  S
C1875      C1876   1.414       .  A
C1875      O1880   1.372       .  S
C1876      C1877   1.405       .  A
C1877      C1878   1.399       .  A
C1877      H1881   1.083       .  S
C1878      O1882   1.372       .  S
O1880      H1884   0.992       .  S
O1882      H1883   0.992       .  S
C1885      C1886   1.402       .  A
C1885      C1890   1.410       .  A
C1886      C1887   1.398       .  A
C1886      H1891   1.084       .  S
C1887      C2632   1.415       .  A
C1887      O2636   1.372       .  S
C1888      C2631   1.415       .  A
C1888      C2633   1.409       .  A
C1889      C2632   1.409       .  A
C1889      C1890   1.404       .  A
C1889      H1893   1.083       .  S
C1890      O1894   1.372       .  S
O1892      C2631   1.372       .  S
O1892      H1896   0.992       .  S
O1894      H1895   0.992       .  S
C1897      C1898   1.406       .  A
C1897      C1902   1.410       .  A
C1898      C1899   1.405       .  A
C1898      H1903   1.084       .  S
C1899      C1900   1.415       .  A
C1899      O1904   1.371       .  S
C1900      C1901   1.407       .  A
C1901      C1902   1.397       .  A
C1901      H1905   1.083       .  S
C1902      O1906   1.372       .  S
O1904      H1908   0.992       .  S
O1906      H1907   0.992       .  S
C1910      C1911   1.398       .  A
C1910      H1915   1.083       .  S
C1911      C1912   1.408       .  A
C1911      O1916   1.372       .  S
C1912      C1913   1.403       .  A
C1913      C1914   1.404       .  A
C1913      H1917   1.084       .  S
O1916      H1920   0.992       .  S
O1918      H1919   0.992       .  S
C1922      C1923   1.393       .  A
C1922      H1927   1.083       .  S
C1923      C1924   1.407       .  A
C1923      O1928   1.372       .  S
C1924      C1925   1.403       .  A
C1925      C1926   1.404       .  A
C1925      H1929   1.084       .  S
O1928      H1932   0.992       .  S
O1930      H1931   0.992       .  S
C1933      C1934   1.407       .  A
C1933      C1938   1.413       .  A
C1934      C1935   1.396       .  A
C1934      H1939   1.083       .  S
C1935      C1936   1.409       .  A
C1935      O1940   1.373       .  S
C1936      C1937   1.406       .  A
C1937      C1938   1.402       .  A
C1937      H1941   1.084       .  S
C1938      O1942   1.371       .  S
O1940      H1944   0.992       .  S
O1942      H1943   0.992       .  S
C1945      C1946   1.401       .  A
C1945      C1950   1.412       .  A
C1946      C1947   1.396       .  A
C1946      H1951   1.084       .  S
C1947      C1948   1.416       .  A
C1947      O1952   1.372       .  S
C1948      C1949   1.406       .  A
C1949      C1950   1.403       .  A
C1949      H1953   1.083       .  S
C1950      O1954   1.372       .  S
O1952      H1956   0.992       .  S
O1954      H1955   0.992       .  S
C1957      C1958   1.401       .  A
C1957      C1962   1.407       .  A
C1958      C1959   1.398       .  A
C1958      H1963   1.084       .  S
C1959      C2704   1.413   1_545  A
C1959      O2708   1.373       .  S
C1960      C2703   1.413       .  A
C1960      C2705   1.408       .  A
C1961      C2704   1.408   1_545  A
C1961      C1962   1.402       .  A
C1961      H1965   1.083   1_545  S
C1962      O1966   1.372       .  S
O1964      C2703   1.373       .  S
O1964      H1968   0.992       .  S
O1966      H1967   0.992       .  S
C1969      C1970   1.402       .  A
C1969      C1974   1.411       .  A
C1970      C1971   1.394   1_554  A
C1970      H1975   1.084       .  S
C1971      C1972   1.412       .  A
C1971      O1976   1.372       .  S
C1972      C1973   1.407       .  A
C1973      C1974   1.407   1_556  A
C1973      H1977   1.083       .  S
C1974      O1978   1.371       .  S
O1976      H1980   0.992       .  S
O1978      H1979   0.992       .  S
C1981      C1982   1.403       .  A
C1981      C1986   1.405       .  A
C1982      C1983   1.398       .  A
C1982      H1987   1.084       .  S
C1983      C1984   1.405       .  A
C1983      O1988   1.371       .  S
C1984      C1985   1.403       .  A
C1985      C1986   1.399       .  A
C1985      H1989   1.084       .  S
C1986      O1990   1.372       .  S
O1988      H1992   0.992       .  S
O1990      H1991   0.992       .  S
C1993      C1994   1.404       .  A
C1993      C1998   1.411       .  A
C1994      H1999   1.084       .  S
C1995      C1996   1.411       .  A
C1995      O2000   1.372       .  S
C1996      C1997   1.407       .  A
C1997      H2001   1.083       .  S
C1998      O2002   1.371       .  S
C2005      C2006   1.404       .  A
C2005      C2010   1.407       .  A
C2006      C2007   1.400       .  A
C2006      H2011   1.084       .  S
C2007      C2008   1.406       .  A
C2007      O2012   1.371       .  S
C2008      C2009   1.405       .  A
C2009      C2010   1.406       .  A
C2009      H2013   1.084       .  S
C2010      O2014   1.372       .  S
O2012      H2016   0.992       .  S
O2014      H2015   0.992       .  S
C2017      C2018   1.401       .  A
C2017      C2022   1.408       .  A
C2018      C2019   1.400       .  A
C2018      H2023   1.084       .  S
C2019      C2020   1.407       .  A
C2019      O2024   1.372       .  S
C2020      C2021   1.401       .  A
C2021      C2022   1.402       .  A
C2021      H2025   1.084       .  S
C2022      O2026   1.371       .  S
O2024      H2028   0.992       .  S
O2026      H2027   0.992       .  S
C2029      C2030   1.406       .  A
C2029      C2034   1.409       .  A
C2030      C2031   1.404       .  A
C2030      H2035   1.084       .  S
C2031      C2032   1.414       .  A
C2031      O2036   1.372       .  S
C2032      C2033   1.406       .  A
C2033      C2034   1.395       .  A
C2033      H2037   1.084       .  S
C2034      O2038   1.372       .  S
O2036      H2040   0.992       .  S
O2038      H2039   0.992       .  S
C2041      C2042   1.407       .  A
C2041      C2046   1.415       .  A
C2042      C2043   1.394       .  A
C2042      H2047   1.084       .  S
C2043      C2044   1.406       .  A
C2043      O2048   1.372       .  S
C2044      C2045   1.402       .  A
C2045      C2046   1.404       .  A
C2045      H2049   1.084       .  S
C2046      O2050   1.372       .  S
O2048      H2052   0.992       .  S
O2050      H2051   0.992       .  S
C2053      C2054   1.406       .  A
C2053      C2058   1.411       .  A
C2054      C2799   1.404       .  A
C2054      H2059   1.083       .  S
C2055      C2798   1.404   1_545  A
C2055      C2056   1.410       .  A
C2055      O2060   1.371       .  S
C2056      C2057   1.405       .  A
C2057      C2802   1.396   1_545  A
C2057      H2061   1.084       .  S
C2058      C2801   1.396       .  A
C2058      O2062   1.372       .  S
O2060      H2064   0.992       .  S
O2062      H2063   0.992       .  S
C2065      C2066   1.401       .  A
C2065      C2070   1.408       .  A
C2066      C2067   1.398       .  A
C2066      H2071   1.084       .  S
C2067      C2068   1.414       .  A
C2067      O2072   1.372       .  S
C2068      C2069   1.409       .  A
C2069      C2070   1.403       .  A
C2069      H2073   1.083       .  S
C2070      O2818   1.372       .  S
O2072      H2076   0.992       .  S
O2074      C2814   1.372       .  S
O2074      H2075   0.992       .  S
C2077      C2078   1.408       .  A
C2077      C2082   1.413       .  A
C2078      C2079   1.398       .  A
C2078      H2083   1.083       .  S
C2079      C2080   1.407       .  A
C2079      O2084   1.372       .  S
C2080      C2081   1.404       .  A
C2081      C2082   1.401       .  A
C2081      H2085   1.084       .  S
C2082      O2086   1.372       .  S
O2084      H2088   0.992       .  S
O2086      H2087   0.992       .  S
C2089      C2090   1.402       .  A
C2089      C2094   1.407       .  A
C2090      C2091   1.403       .  A
C2090      H2095   1.084       .  S
C2091      C2092   1.409       .  A
C2091      O2096   1.371       .  S
C2092      C2093   1.401       .  A
C2093      C2094   1.399       .  A
C2093      H2097   1.084       .  S
C2094      O2098   1.372       .  S
O2096      H2100   0.992       .  S
O2098      H2099   0.991       .  S
C2101      C2102   1.402       .  A
C2101      C2106   1.407       .  A
C2102      C2103   1.402       .  A
C2102      H2107   1.084       .  S
C2103      C2104   1.408       .  A
C2103      O2108   1.371       .  S
C2104      C2105   1.402       .  A
C2105      C2106   1.401       .  A
C2105      H2109   1.084       .  S
C2106      O2110   1.372       .  S
O2108      H2112   0.992       .  S
O2110      H2111   0.992       .  S
C2113      C2114   1.402       .  A
C2113      C2118   1.412       .  A
C2114      C2115   1.396       .  A
C2114      H2119   1.084       .  S
C2115      C2116   1.416       .  A
C2115      O2120   1.372       .  S
C2116      C2117   1.407       .  A
C2117      C2118   1.403       .  A
C2117      H2121   1.083       .  S
C2118      O2122   1.371       .  S
O2120      H2124   0.992       .  S
O2122      H2123   0.992       .  S
C2125      C2126   1.404       .  A
C2125      C2130   1.407       .  A
C2126      C2127   1.405       .  A
C2126      H2131   1.084       .  S
C2127      O2132   1.371       .  S
C2129      C2130   1.397       .  A
C2130      O2878   1.372       .  S
O2132      H2136   0.992       .  S
O2134      C2874   1.372       .  S
O2134      H2135   0.992       .  S
C2137      C2138   1.407       .  A
C2137      C2142   1.414       .  A
C2138      C2139   1.399       .  A
C2138      H2143   1.083       .  S
C2139      C2140   1.409       .  A
C2139      O2144   1.372       .  S
C2140      C2141   1.406       .  A
C2141      C2142   1.402       .  A
C2141      H2145   1.084       .  S
C2142      O2146   1.372       .  S
O2144      H2148   0.992       .  S
O2146      H2147   0.992       .  S
C2149      C2150   1.403       .  A
C2149      C2154   1.411       .  A
C2150      C2151   1.398       .  A
C2150      H2155   1.084       .  S
C2151      C2896   1.417       .  A
C2151      O2900   1.372       .  S
C2152      C2895   1.417   1_545  A
C2152      C2897   1.410   1_545  A
C2153      C2896   1.410       .  A
C2153      C2154   1.408       .  A
C2153      H2157   1.083       .  S
C2154      O2158   1.371       .  S
O2156      C2895   1.372       .  S
O2156      H2160   0.992   1_565  S
O2158      H2159   0.992       .  S
C2161      C2162   1.404       .  A
C2161      C2166   1.406       .  A
C2162      C2163   1.401       .  A
C2162      H2167   1.084       .  S
C2163      C2164   1.405       .  A
C2163      O2168   1.372       .  S
C2164      C2165   1.405       .  A
C2165      C2166   1.404       .  A
C2165      H2169   1.084       .  S
C2166      O2170   1.371       .  S
O2168      H2172   0.992       .  S
O2170      H2171   0.992       .  S
C2173      C2174   1.407       .  A
C2173      C2178   1.414       .  A
C2174      C2175   1.394       .  A
C2174      H2179   1.083       .  S
C2175      C2176   1.406       .  A
C2175      O2180   1.373       .  S
C2176      C2177   1.404       .  A
C2177      C2178   1.406       .  A
C2177      H2181   1.084       .  S
C2178      O2182   1.371       .  S
O2180      H2184   0.992       .  S
O2182      H2183   0.992       .  S
C2185      C2186   1.401       .  A
C2185      C2190   1.408       .  A
C2186      C2187   1.396       .  A
C2186      H2191   1.084       .  S
C2187      C2932   1.415   1_545  A
C2187      O2192   1.371       .  S
C2188      C2931   1.415       .  A
C2188      C2933   1.410       .  A
C2189      C2932   1.410   1_545  A
C2189      C2190   1.404       .  A
C2189      H2937   1.083   1_545  S
O2192      H2196   0.992       .  S
H2193      C2933   1.083       .  S
O2194      H2195   0.992       .  S
C2197      C2198   1.405       .  A
C2197      C2202   1.408       .  A
C2198      C2199   1.402       .  A
C2198      H2203   1.084       .  S
C2199      C2200   1.413       .  A
C2199      O2204   1.372       .  S
C2200      C2201   1.408       .  A
C2201      C2202   1.399       .  A
C2201      H2205   1.083       .  S
C2202      O2206   1.372       .  S
O2204      H2208   0.992       .  S
O2206      H2207   0.992       .  S
C2210      C2211   1.395       .  A
C2210      H2215   1.084       .  S
C2211      C2212   1.404       .  A
C2211      O2216   1.372       .  S
C2212      C2213   1.402       .  A
C2213      C2214   1.402       .  A
C2213      H2217   1.084       .  S
O2216      H2220   0.992       .  S
O2218      H2219   0.992       .  S
C2221      C2222   1.406       .  A
C2221      C2226   1.412       .  A
C2222      C2223   1.396       .  A
C2222      H2227   1.084       .  S
C2223      C2224   1.406       .  A
C2223      O2228   1.372       .  S
C2224      C2225   1.403       .  A
C2225      C2226   1.399       .  A
C2225      H2229   1.084       .  S
C2226      O2230   1.372       .  S
O2228      H2232   0.992       .  S
O2230      H2231   0.992       .  S
O2233     Ni2239   1.920       .  S
O2233      C2254   1.270       .  A
O2234     Ni2257   1.912       .  S
O2234      C2243   1.268       .  A
O2235     Ni2239   1.908       .  S
O2235     Ni2257   1.919       .  S
O2235     Ni2251   1.926       .  S
O2235      H2258   0.966       .  S
C2236      O2253   1.278       .  A
C2236      O2245   1.277       .  A
C2236      C2965   1.480       .  S
O2237     Ni2256   1.926       .  S
O2237      C2243   1.272       .  A
O2238     Ni2256   1.907       .  S
O2238      C2240   1.269       .  A
Ni2239     O2242   1.924       .  S
Ni2239     O2244   1.903       .  S
C2240      O2250   1.271       .  A
C2240      C2941   1.480       .  S
O2241     Ni2257   1.904       .  S
O2241      C2247   1.267       .  A
O2242      C2247   1.271       .  A
C2243      C2917   1.488       .  S
O2244      C2246   1.271       .  A
O2245     Ni2256   1.915       .  S
C2246      O2252   1.279       .  A
C2246      C2932   1.490       .  S
C2247      C2956   1.466       .  S
H2248      O2249   0.966       .  S
O2249     Ni2257   1.898       .  S
O2249     Ni2251   1.901       .  S
O2249     Ni2256   1.898       .  S
O2250     Ni2251   1.924       .  S
Ni2251     O2255   1.917       .  S
Ni2251     O2253   1.920       .  S
O2252     Ni2257   1.949       .  S
C2254      O2255   1.269       .  A
C2254      C2905   1.472       .  S
O2259     Ni2265   1.933       .  S
O2259      C2280   1.272       .  A
O2260     Ni2283   1.912       .  S
O2260      C2269   1.268       .  A
O2261     Ni2265   1.901       .  S
O2261     Ni2283   1.912       .  S
O2261     Ni2277   1.915       .  S
O2261      H2284   0.967       .  S
C2262      O2279   1.280       .  A
C2262      O2271   1.279       .  A
C2262      C2881   1.489       .  S
O2263     Ni2282   1.929       .  S
O2263      C2269   1.273       .  A
O2264     Ni2282   1.909       .  S
O2264      C2266   1.270       .  A
Ni2265     O2268   1.932       .  S
Ni2265     O2270   1.906       .  S
C2266      O2276   1.270       .  A
C2266      C2857   1.483       .  S
O2267     Ni2283   1.917       .  S
O2267      C2273   1.275       .  A
O2268      C2273   1.278       .  A
C2269      C2920   1.475       .  S
O2270      C2272   1.270       .  A
O2271     Ni2282   1.921       .  S
C2272      O2278   1.274       .  A
C2272      C2872   1.491   1_655  S
C2273      C2893   1.487       .  S
H2274      O2275   0.966       .  S
O2275     Ni2283   1.908       .  S
O2275     Ni2277   1.898       .  S
O2275     Ni2282   1.894       .  S
O2276     Ni2277   1.922       .  S
Ni2277     O2281   1.911       .  S
Ni2277     O2279   1.930       .  S
O2278     Ni2283   1.938       .  S
C2280      O2281   1.267       .  A
C2280      C2845   1.470       .  S
O2285     Ni2291   1.927       .  S
O2285      C2306   1.269       .  A
O2286     Ni2309   1.906       .  S
O2286      C2295   1.267       .  A
O2287     Ni2291   1.901       .  S
O2287     Ni2309   1.910       .  S
O2287     Ni2303   1.915       .  S
O2287      H2310   0.967       .  S
C2288      O2305   1.280       .  A
C2288      O2297   1.278       .  A
C2288      C2821   1.486       .  S
O2289     Ni2308   1.931       .  S
O2289      C2295   1.272       .  A
O2290     Ni2308   1.906       .  S
O2290      C2292   1.268       .  A
Ni2291     O2294   1.928       .  S
Ni2291     O2296   1.901       .  S
C2292      O2302   1.269       .  A
C2292      C2968   1.472       .  S
O2293     Ni2309   1.911       .  S
C2295      C2797   1.481       .  S
O2296      C2298   1.269       .  A
O2297     Ni2308   1.919       .  S
C2298      O2304   1.272       .  A
C2298      C2953   1.480       .  S
C2299      C2809   1.475       .  S
H2300      O2301   0.966       .  S
O2301     Ni2309   1.907       .  S
O2301     Ni2303   1.902       .  S
O2301     Ni2308   1.898       .  S
O2302     Ni2303   1.917       .  S
Ni2303     O2307   1.915       .  S
Ni2303     O2305   1.928       .  S
O2304     Ni2309   1.932       .  S
C2306      O2307   1.268       .  A
C2306      C2833   1.469       .  S
O2311     Ni2317   1.924       .  S
O2311      C2332   1.269       .  A
O2312     Ni2335   1.911       .  S
O2312      C2321   1.269       .  A
O2313     Ni2317   1.903       .  S
O2313     Ni2335   1.916       .  S
O2313     Ni2329   1.920       .  S
O2313      H2336   0.966       .  S
C2314      O2331   1.282       .  A
C2314      O2323   1.277       .  A
C2314      C2860   1.490       .  S
O2315     Ni2334   1.928       .  S
O2315      C2321   1.272       .  A
O2316     Ni2334   1.905       .  S
O2316      C2318   1.268       .  A
Ni2317     O2320   1.927       .  S
Ni2317     O2322   1.900       .  S
C2318      O2328   1.271       .  A
C2318      C2773   1.481       .  S
O2319     Ni2335   1.914       .  S
C2321      C2800   1.482       .  S
O2322      C2324   1.269       .  A
O2323     Ni2334   1.914       .  S
C2324      O2330   1.274       .  A
C2324      C2785   1.487       .  S
C2325      C2869   1.478       .  S
H2326      O2327   0.966       .  S
O2327     Ni2335   1.903       .  S
O2327     Ni2329   1.898       .  S
O2327     Ni2334   1.891       .  S
O2328     Ni2329   1.925       .  S
Ni2329     O2333   1.915       .  S
Ni2329     O2331   1.934       .  S
O2330     Ni2335   1.939       .  S
C2332      O2333   1.268       .  A
C2332      C2761   1.468       .  S
O2337     Ni2343   1.929       .  S
O2337      C2358   1.272       .  A
O2338     Ni2361   1.914       .  S
O2338      C2347   1.269       .  A
O2339     Ni2343   1.903       .  S
O2339     Ni2361   1.916       .  S
O2339     Ni2355   1.920       .  S
O2339      H2362   0.966       .  S
C2340      O2357   1.281       .  A
C2340      O2349   1.278       .  A
C2340      C2944   1.488       .  S
O2341     Ni2360   1.926       .  S
O2341      C2347   1.272       .  A
O2342     Ni2360   1.907       .  S
O2342      C2344   1.269       .  A
Ni2343     O2346   1.930       .  S
Ni2343     O2348   1.903       .  S
C2344      O2354   1.270       .  A
C2344      C2824   1.476       .  S
O2345     Ni2361   1.908       .  S
C2347      C2740   1.484       .  S
O2348      C2350   1.270       .  A
O2349     Ni2360   1.917       .  S
C2350      O2356   1.277       .  A
C2350      C2812   1.489       .  S
C2351      C2929   1.476       .  S
H2352      O2353   0.966       .  S
O2353     Ni2361   1.903       .  S
O2353     Ni2355   1.900       .  S
O2353     Ni2360   1.895       .  S
O2354     Ni2355   1.921       .  S
Ni2355     O2359   1.917       .  S
Ni2355     O2357   1.930       .  S
O2356     Ni2361   1.945       .  S
C2358      O2359   1.269       .  A
C2358      C2752   1.474       .  S
O2363     Ni2369   1.912       .  S
O2363      C2384   1.268       .  A
O2364     Ni2387   1.913       .  S
O2364      C2373   1.269       .  A
O2365     Ni2369   1.911       .  S
O2365     Ni2387   1.921       .  S
O2365     Ni2381   1.935       .  S
O2365      H2388   0.966       .  S
C2366      O2383   1.277       .  A
C2366      O2375   1.278       .  A
C2366      C2776   1.486       .  S
O2367     Ni2386   1.927       .  S
O2367      C2373   1.272       .  A
O2368     Ni2386   1.906       .  S
O2368      C2370   1.268       .  A
Ni2369     O2372   1.919       .  S
Ni2369     O2374   1.903       .  S
C2370      O2380   1.270       .  A
C2370      C2884   1.483       .  S
O2371     Ni2387   1.910   1_455  S
C2373      C2737   1.484       .  S
O2374      C2376   1.272       .  A
O2375     Ni2386   1.920       .  S
C2376      O2382   1.283       .  A
C2376      C2896   1.497       .  S
C2377      C2788   1.472       .  S
H2378      O2379   0.966       .  S
O2379     Ni2387   1.899       .  S
O2379     Ni2381   1.900       .  S
O2379     Ni2386   1.902       .  S
O2380     Ni2381   1.925       .  S
Ni2381     O2385   1.907       .  S
Ni2381     O2383   1.921       .  S
O2382     Ni2387   1.960       .  S
C2384      O2385   1.265       .  A
C2384      C2725   1.463       .  S
O2389     Ni2395   1.921       .  S
O2389      C2410   1.269       .  A
O2390     Ni2413   1.911       .  S
O2390      C2399   1.266       .  A
O2391     Ni2395   1.907       .  S
O2391     Ni2413   1.919       .  S
O2391     Ni2407   1.923       .  S
O2391      H2414   0.966       .  S
C2392      O2409   1.282       .  A
C2392      O2401   1.277       .  A
C2392      C2692   1.487       .  S
O2393     Ni2412   1.928       .  S
O2393      C2399   1.272       .  A
O2394     Ni2412   1.904       .  S
O2394      C2396   1.268       .  A
Ni2395     O2398   1.924       .  S
Ni2395     O2400   1.901       .  S
C2396      O2406   1.270       .  A
C2396      C2680   1.482       .  S
O2397     Ni2413   1.908       .  S
O2397      C2403   1.270       .  A
O2398      C2403   1.273       .  A
C2399      C2713   1.482       .  S
O2400      C2402   1.270       .  A
O2401     Ni2412   1.912       .  S
C2402      O2408   1.273       .  A
C2402      C2665   1.487       .  S
C2403      C2701   1.472       .  S
H2404      O2405   0.966       .  S
O2405     Ni2413   1.901       .  S
O2405     Ni2407   1.905       .  S
O2405     Ni2412   1.896       .  S
O2406     Ni2407   1.923       .  S
Ni2407     O2411   1.923       .  S
Ni2407     O2409   1.934       .  S
O2408     Ni2413   1.936       .  S
C2410      O2411   1.270       .  A
C2410      C2749   1.473       .  S
O2415     Ni2421   1.929       .  S
O2415      C2436   1.271       .  A
O2416     Ni2439   1.912       .  S
O2416      C2425   1.269       .  A
O2417     Ni2421   1.901       .  S
O2417     Ni2439   1.911       .  S
O2417     Ni2433   1.916       .  S
O2417      H2440   0.966       .  S
C2418      O2435   1.279       .  A
C2418      O2427   1.279       .  A
C2418      C2644   1.493       .  S
O2419     Ni2438   1.928       .  S
O2419      C2425   1.272       .  A
O2420     Ni2438   1.910       .  S
O2420      C2422   1.269       .  A
Ni2421     O2424   1.928       .  S
Ni2421     O2426   1.903       .  S
C2422      O2432   1.267       .  A
C2422      C2617   1.476       .  S
O2423     Ni2439   1.912       .  S
O2423      C2429   1.273       .  A
O2424      C2429   1.275       .  A
C2425      C2716   1.484       .  S
O2426      C2428   1.270       .  A
O2427     Ni2438   1.920       .  S
C2428      O2434   1.277       .  A
C2428      C2632   1.491       .  S
C2429      C2656   1.479       .  S
H2430      O2431   0.966       .  S
O2431     Ni2439   1.909       .  S
O2431     Ni2433   1.901       .  S
O2431     Ni2438   1.899       .  S
O2432     Ni2433   1.913       .  S
Ni2433     O2437   1.909       .  S
Ni2433     O2435   1.929       .  S
O2434     Ni2439   1.943       .  S
C2436      O2437   1.266       .  A
C2436      C2764   1.468       .  S
O2441     Ni2447   1.926       .  S
O2441      C2462   1.270       .  A
O2442     Ni2465   1.908       .  S
O2442      C2451   1.267       .  A
O2443     Ni2447   1.903       .  S
O2443     Ni2465   1.913       .  S
O2443     Ni2459   1.918       .  S
O2443      H2466   0.967       .  S
C2444      O2461   1.282       .  A
C2444      O2453   1.277       .  A
C2444      C2605   1.490       .  S
O2445     Ni2464   1.928       .  S
O2445      C2451   1.272       .  A
O2446     Ni2464   1.908       .  S
O2446      C2448   1.270       .  A
Ni2447     O2450   1.931       .  S
Ni2447     O2452   1.902       .  S
C2448      O2458   1.269       .  A
C2448      C2689   1.479       .  S
O2449     Ni2465   1.913       .  S
C2451      C2581   1.482       .  S
O2452      C2454   1.268       .  A
O2453     Ni2464   1.915       .  S
C2454      O2460   1.274       .  A
C2454      C2704   1.485       .  S
C2455      C2593   1.481       .  S
H2456      O2457   0.966       .  S
O2457     Ni2465   1.906       .  S
O2457     Ni2459   1.902       .  S
O2457     Ni2464   1.895       .  S
O2458     Ni2459   1.919       .  S
Ni2459     O2463   1.915       .  S
Ni2459     O2461   1.934       .  S
O2460     Ni2465   1.938       .  S
C2462      O2463   1.268       .  A
C2462      C2836   1.469       .  S
O2467     Ni2473   1.923       .  S
O2467      C2488   1.267       .  A
O2468     Ni2491   1.913       .  S
O2468      C2477   1.269       .  A
O2469     Ni2473   1.901       .  S
O2469     Ni2491   1.914       .  S
O2469     Ni2485   1.915       .  S
O2469      H2492   0.966       .  S
C2470      O2487   1.280       .  A
C2470      O2479   1.277       .  A
C2470      C2620   1.483       .  S
O2471     Ni2490   1.925       .  S
O2471      C2477   1.273       .  A
O2472     Ni2490   1.909       .  S
O2472      C2474   1.269       .  A
Ni2473     O2476   1.922       .  S
Ni2473     O2478   1.893       .  S
C2474      O2484   1.268       .  A
C2474      C2572   1.478       .  S
O2475     Ni2491   1.916       .  S
C2477      C2584   1.481       .  S
O2478      C2480   1.268       .  A
O2479     Ni2490   1.916       .  S
C2480      O2486   1.273       .  A
C2480      C2560   1.481       .  S
C2481      C2629   1.481       .  S
H2482      O2483   0.966       .  S
O2483     Ni2491   1.905       .  S
O2483     Ni2485   1.902       .  S
O2483     Ni2490   1.896       .  S
O2484     Ni2485   1.915       .  S
Ni2485     O2489   1.919       .  S
Ni2485     O2487   1.925       .  S
O2486     Ni2491   1.932       .  S
C2488      O2489   1.266       .  A
C2488      C2848   1.469       .  S
O2493     Ni2499   1.919       .  S
O2493      C2514   1.269       .  A
O2494     Ni2517   1.916       .  S
O2494      C2503   1.269       .  A
O2495     Ni2499   1.905       .  S
O2495     Ni2517   1.919       .  S
O2495     Ni2511   1.923       .  S
O2495      H2518   0.966       .  S
C2496      O2513   1.279       .  A
C2496      O2505   1.278       .  A
C2496      C2677   1.487       .  S
O2497     Ni2516   1.927       .  S
O2497      C2503   1.272       .  A
O2498     Ni2516   1.907       .  S
O2498      C2500   1.269       .  A
Ni2499     O2502   1.923       .  S
Ni2499     O2504   1.903       .  S
C2500      O2510   1.270       .  A
C2500      C2608   1.484       .  S
O2501     Ni2517   1.908       .  S
C2503      C2545   1.485       .  S
O2504      C2506   1.271       .  A
O2505     Ni2516   1.915       .  S
C2506      O2512   1.280       .  A
C2506      C2596   1.493       .  S
C2507      C2668   1.474       .  S
H2508      O2509   0.966       .  S
O2509     Ni2517   1.900       .  S
O2509     Ni2511   1.904       .  S
O2509     Ni2516   1.898       .  S
O2510     Ni2511   1.923       .  S
Ni2511     O2515   1.917       .  S
Ni2511     O2513   1.925       .  S
O2512     Ni2517   1.954       .  S
C2514      O2515   1.269       .  A
C2514      C2908   1.471       .  S
O2519     Ni2525   1.920       .  S
O2519      C2540   1.271       .  A
O2520     Ni2543   1.912       .  S
O2520      C2529   1.268       .  A
O2521     Ni2525   1.907       .  S
O2521     Ni2543   1.916       .  S
O2521     Ni2537   1.924       .  S
O2521      H2544   0.965       .  S
C2522      O2539   1.280       .  A
C2522      O2531   1.277       .  A
C2522      C2569   1.483       .  S
O2523     Ni2542   1.927       .  S
O2523      C2529   1.272       .  A
O2524     Ni2542   1.908       .  S
O2524      C2526   1.269       .  A
Ni2525     O2528   1.926       .  S
Ni2525     O2530   1.906       .  S
C2526      O2536   1.271       .  A
C2526      C2641   1.487       .  S
O2527     Ni2543   1.902       .  S
C2529      C2548   1.485       .  S
O2530      C2532   1.272       .  A
O2531     Ni2542   1.914       .  S
C2532      O2538   1.278       .  A
C2532      C2653   1.492       .  S
C2533      C2557   1.470       .  S
H2534      O2535   0.966       .  S
O2535     Ni2543   1.895       .  S
O2535     Ni2537   1.897       .  S
O2535     Ni2542   1.894       .  S
O2536     Ni2537   1.928       .  S
Ni2537     O2541   1.907       .  S
Ni2537     O2539   1.926       .  S
O2538     Ni2543   1.947       .  S
C2540      O2541   1.266       .  A
C2540      C2728   1.464       .  S
C2545      C2546   1.407       .  A
C2545      C2550   1.412       .  A
C2546      H2551   1.083       .  S
C2547      C2548   1.412       .  A
C2547      O2552   1.371       .  S
C2548      C2549   1.404       .  A
C2549      H2553   1.084       .  S
C2550      O2554   1.372       .  S
O2552      H2556   0.992       .  S
O2554      H2555   0.992       .  S
C2557      C2558   1.403       .  A
C2557      C2562   1.404       .  A
C2558      C2559   1.403       .  A
C2558      H2563   1.083       .  S
C2559      C2560   1.413       .  A
C2559      O2564   1.372       .  S
C2560      C2561   1.406       .  A
C2561      C2562   1.394       .  A
C2561      H2565   1.084       .  S
C2562      O2566   1.373       .  S
O2564      H2568   0.992       .  S
O2566      H2567   0.992       .  S
C2569      C2570   1.405       .  A
C2569      C2574   1.413       .  A
C2570      C2571   1.400       .  A
C2570      H2575   1.084       .  S
C2571      C2572   1.412       .  A
C2571      O2576   1.372       .  S
C2572      C2573   1.402       .  A
C2573      C2574   1.397       .  A
C2573      H2577   1.084       .  S
C2574      O2578   1.372       .  S
O2576      H2580   0.992       .  S
O2578      H2579   0.992       .  S
C2581      C2586   1.410       .  A
C2582      C2583   1.406   1_454  A
C2582      H2587   1.083       .  S
C2583      C2584   1.410       .  A
C2583      O2588   1.371       .  S
C2585      C2586   1.394   1_556  A
C2585      H2589   1.084       .  S
C2586      O2590   1.373       .  S
O2588      H2592   0.992       .  S
O2590      H2591   0.992       .  S
C2593      C2594   1.405       .  A
C2593      C2598   1.407       .  A
C2594      C2595   1.406       .  A
C2594      H2599   1.084       .  S
C2595      C2596   1.415       .  A
C2595      O2600   1.371       .  S
C2596      C2597   1.408       .  A
C2597      C2598   1.396       .  A
C2597      H2601   1.083       .  S
C2598      O2602   1.372       .  S
O2600      H2604   0.992       .  S
O2602      H2603   0.992       .  S
C2605      C2606   1.407       .  A
C2605      C2610   1.415       .  A
C2606      C2607   1.403       .  A
C2606      H2611   1.083       .  S
C2607      C2608   1.412       .  A
C2607      O2612   1.372       .  S
C2608      C2609   1.403       .  A
C2609      C2610   1.397       .  A
C2609      H2613   1.084       .  S
C2610      O2614   1.372       .  S
O2612      H2616   0.992       .  S
O2614      H2615   0.992       .  S
C2617      C2618   1.402       .  A
C2617      C2622   1.411       .  A
C2618      C2619   1.397       .  A
C2618      H2623   1.084       .  S
C2619      C2620   1.414       .  A
C2619      O2624   1.372       .  S
C2620      C2621   1.405       .  A
C2621      C2622   1.399       .  A
C2621      H2625   1.083       .  S
C2622      O2626   1.372       .  S
O2624      H2628   0.992       .  S
O2626      H2627   0.992       .  S
C2629      C2630   1.402       .  A
C2629      C2634   1.410       .  A
C2630      C2631   1.398       .  A
C2630      H2635   1.084       .  S
C2633      C2634   1.404       .  A
C2633      H2637   1.083       .  S
C2634      O2638   1.372       .  S
O2636      H2640   0.992       .  S
O2638      H2639   0.992       .  S
C2641      C2642   1.406       .  A
C2641      C2646   1.410       .  A
C2642      C2643   1.405       .  A
C2642      H2647   1.084       .  S
C2643      C2644   1.415       .  A
C2643      O2648   1.371       .  S
C2644      C2645   1.407       .  A
C2645      C2646   1.397       .  A
C2645      H2649   1.083       .  S
C2646      O2650   1.372       .  S
O2648      H2652   0.992       .  S
O2650      H2651   0.992       .  S
C2654      C2655   1.398       .  A
C2654      H2659   1.083       .  S
C2655      C2656   1.408       .  A
C2655      O2660   1.372       .  S
C2656      C2657   1.403       .  A
C2657      C2658   1.404       .  A
C2657      H2661   1.084       .  S
O2660      H2664   0.992       .  S
O2662      H2663   0.992       .  S
C2666      C2667   1.393       .  A
C2666      H2671   1.083       .  S
C2667      C2668   1.407       .  A
C2667      O2672   1.372       .  S
C2668      C2669   1.403       .  A
C2669      C2670   1.404       .  A
C2669      H2673   1.084       .  S
O2672      H2676   0.992       .  S
O2674      H2675   0.992       .  S
C2677      C2678   1.407       .  A
C2677      C2682   1.413       .  A
C2678      C2679   1.396       .  A
C2678      H2683   1.083       .  S
C2679      C2680   1.409       .  A
C2679      O2684   1.373       .  S
C2680      C2681   1.406       .  A
C2681      C2682   1.402       .  A
C2681      H2685   1.084       .  S
C2682      O2686   1.371       .  S
O2684      H2688   0.992       .  S
O2686      H2687   0.992       .  S
C2689      C2690   1.401       .  A
C2689      C2694   1.412       .  A
C2690      C2691   1.396       .  A
C2690      H2695   1.084       .  S
C2691      C2692   1.416       .  A
C2691      O2696   1.372       .  S
C2692      C2693   1.406       .  A
C2693      C2694   1.403       .  A
C2693      H2697   1.083       .  S
C2694      O2698   1.372       .  S
O2696      H2700   0.992       .  S
O2698      H2699   0.992       .  S
C2701      C2702   1.401       .  A
C2701      C2706   1.407       .  A
C2702      C2703   1.398       .  A
C2702      H2707   1.084       .  S
C2705      C2706   1.402       .  A
C2705      H2709   1.083       .  S
C2706      O2710   1.372       .  S
O2708      H2712   0.992       .  S
O2710      H2711   0.992       .  S
C2713      C2714   1.402       .  A
C2713      C2718   1.411       .  A
C2714      C2715   1.394   1_554  A
C2714      H2719   1.084       .  S
C2715      C2716   1.412       .  A
C2715      O2720   1.372       .  S
C2716      C2717   1.407       .  A
C2717      C2718   1.407   1_556  A
C2717      H2721   1.083       .  S
C2718      O2722   1.371       .  S
O2720      H2724   0.992       .  S
O2722      H2723   0.992       .  S
C2725      C2726   1.403       .  A
C2725      C2730   1.405       .  A
C2726      C2727   1.398       .  A
C2726      H2731   1.084       .  S
C2727      C2728   1.405       .  A
C2727      O2732   1.371       .  S
C2728      C2729   1.403       .  A
C2729      C2730   1.399       .  A
C2729      H2733   1.084       .  S
C2730      O2734   1.372       .  S
O2732      H2736   0.992       .  S
O2734      H2735   0.992       .  S
C2737      C2738   1.404       .  A
C2737      C2742   1.411       .  A
C2738      H2743   1.084       .  S
C2739      C2740   1.411       .  A
C2739      O2744   1.372       .  S
C2740      C2741   1.407       .  A
C2741      H2745   1.083       .  S
C2742      O2746   1.371       .  S
C2749      C2750   1.404       .  A
C2749      C2754   1.407       .  A
C2750      C2751   1.400       .  A
C2750      H2755   1.084       .  S
C2751      C2752   1.406       .  A
C2751      O2756   1.371       .  S
C2752      C2753   1.405       .  A
C2753      C2754   1.406       .  A
C2753      H2757   1.084       .  S
C2754      O2758   1.372       .  S
O2756      H2760   0.992       .  S
O2758      H2759   0.992       .  S
C2761      C2762   1.401       .  A
C2761      C2766   1.408       .  A
C2762      C2763   1.400       .  A
C2762      H2767   1.084       .  S
C2763      C2764   1.407       .  A
C2763      O2768   1.372       .  S
C2764      C2765   1.401       .  A
C2765      C2766   1.402       .  A
C2765      H2769   1.084       .  S
C2766      O2770   1.371       .  S
O2768      H2772   0.992       .  S
O2770      H2771   0.992       .  S
C2773      C2774   1.406       .  A
C2773      C2778   1.409       .  A
C2774      C2775   1.404       .  A
C2774      H2779   1.084       .  S
C2775      C2776   1.414       .  A
C2775      O2780   1.372       .  S
C2776      C2777   1.406       .  A
C2777      C2778   1.395       .  A
C2777      H2781   1.084       .  S
C2778      O2782   1.372       .  S
O2780      H2784   0.992       .  S
O2782      H2783   0.992       .  S
C2785      C2786   1.407       .  A
C2785      C2790   1.415       .  A
C2786      C2787   1.394       .  A
C2786      H2791   1.084       .  S
C2787      C2788   1.406       .  A
C2787      O2792   1.372       .  S
C2788      C2789   1.402       .  A
C2789      C2790   1.404       .  A
C2789      H2793   1.084       .  S
C2790      O2794   1.372       .  S
O2792      H2796   0.992       .  S
O2794      H2795   0.992       .  S
C2797      C2798   1.406       .  A
C2797      C2802   1.411       .  A
C2798      H2803   1.083       .  S
C2799      C2800   1.410       .  A
C2799      O2804   1.371       .  S
C2800      C2801   1.405       .  A
C2801      H2805   1.084       .  S
C2802      O2806   1.372       .  S
O2804      H2808   0.992       .  S
O2806      H2807   0.992       .  S
C2809      C2810   1.401       .  A
C2809      C2814   1.408       .  A
C2810      C2811   1.398       .  A
C2810      H2815   1.084       .  S
C2811      C2812   1.414       .  A
C2811      O2816   1.372       .  S
C2812      C2813   1.409       .  A
C2813      C2814   1.403       .  A
C2813      H2817   1.083       .  S
O2816      H2820   0.992       .  S
O2818      H2819   0.992       .  S
C2821      C2822   1.408       .  A
C2821      C2826   1.413       .  A
C2822      C2823   1.398       .  A
C2822      H2827   1.083       .  S
C2823      C2824   1.407       .  A
C2823      O2828   1.372       .  S
C2824      C2825   1.404       .  A
C2825      C2826   1.401       .  A
C2825      H2829   1.084       .  S
C2826      O2830   1.372       .  S
O2828      H2832   0.992       .  S
O2830      H2831   0.992       .  S
C2833      C2834   1.402       .  A
C2833      C2838   1.407       .  A
C2834      C2835   1.403       .  A
C2834      H2839   1.084       .  S
C2835      C2836   1.409       .  A
C2835      O2840   1.371       .  S
C2836      C2837   1.401       .  A
C2837      C2838   1.399       .  A
C2837      H2841   1.084       .  S
C2838      O2842   1.372       .  S
O2840      H2844   0.992       .  S
O2842      H2843   0.991       .  S
C2845      C2846   1.402       .  A
C2845      C2850   1.407       .  A
C2846      C2847   1.402       .  A
C2846      H2851   1.084       .  S
C2847      C2848   1.408       .  A
C2847      O2852   1.371       .  S
C2848      C2849   1.402       .  A
C2849      C2850   1.401       .  A
C2849      H2853   1.084       .  S
C2850      O2854   1.372       .  S
O2852      H2856   0.992       .  S
O2854      H2855   0.992       .  S
C2857      C2858   1.402       .  A
C2857      C2862   1.412       .  A
C2858      C2859   1.396       .  A
C2858      H2863   1.084       .  S
C2859      C2860   1.416       .  A
C2859      O2864   1.372       .  S
C2860      C2861   1.407       .  A
C2861      C2862   1.403       .  A
C2861      H2865   1.083       .  S
C2862      O2866   1.371       .  S
O2864      H2868   0.992       .  S
O2866      H2867   0.992       .  S
C2869      C2870   1.404       .  A
C2869      C2874   1.407       .  A
C2870      C2871   1.405       .  A
C2870      H2875   1.084       .  S
C2871      O2876   1.371       .  S
C2873      C2874   1.397       .  A
O2876      H2880   0.992       .  S
O2878      H2879   0.992       .  S
C2881      C2882   1.407       .  A
C2881      C2886   1.414       .  A
C2882      C2883   1.399       .  A
C2882      H2887   1.083       .  S
C2883      C2884   1.409       .  A
C2883      O2888   1.372       .  S
C2884      C2885   1.406       .  A
C2885      C2886   1.402       .  A
C2885      H2889   1.084       .  S
C2886      O2890   1.372       .  S
O2888      H2892   0.992       .  S
O2890      H2891   0.992       .  S
C2893      C2894   1.403       .  A
C2893      C2898   1.411       .  A
C2894      C2895   1.398       .  A
C2894      H2899   1.084       .  S
C2897      C2898   1.408       .  A
C2897      H2901   1.083   1_565  S
C2898      O2902   1.371       .  S
O2900      H2904   0.992       .  S
O2902      H2903   0.992       .  S
C2905      C2906   1.404       .  A
C2905      C2910   1.406       .  A
C2906      C2907   1.401       .  A
C2906      H2911   1.084       .  S
C2907      C2908   1.405       .  A
C2907      O2912   1.372       .  S
C2908      C2909   1.405       .  A
C2909      C2910   1.404       .  A
C2909      H2913   1.084       .  S
C2910      O2914   1.371       .  S
O2912      H2916   0.992       .  S
O2914      H2915   0.992       .  S
C2917      C2918   1.407       .  A
C2917      C2922   1.414       .  A
C2918      C2919   1.394       .  A
C2918      H2923   1.083       .  S
C2919      C2920   1.406       .  A
C2919      O2924   1.373       .  S
C2920      C2921   1.404       .  A
C2921      C2922   1.406       .  A
C2921      H2925   1.084       .  S
C2922      O2926   1.371       .  S
O2924      H2928   0.992       .  S
O2926      H2927   0.992       .  S
C2929      C2930   1.401       .  A
C2929      C2934   1.408       .  A
C2930      C2931   1.396       .  A
C2930      H2935   1.084       .  S
C2931      O2936   1.371       .  S
C2933      C2934   1.404       .  A
O2936      H2940   0.992       .  S
O2938      H2939   0.992       .  S
C2941      C2942   1.405       .  A
C2941      C2946   1.408       .  A
C2942      C2943   1.402       .  A
C2942      H2947   1.084       .  S
C2943      C2944   1.413       .  A
C2943      O2948   1.372       .  S
C2944      C2945   1.408       .  A
C2945      C2946   1.399       .  A
C2945      H2949   1.083       .  S
C2946      O2950   1.372       .  S
O2948      H2952   0.992       .  S
O2950      H2951   0.992       .  S
C2954      C2955   1.395       .  A
C2954      H2959   1.084       .  S
C2955      C2956   1.404       .  A
C2955      O2960   1.372       .  S
C2956      C2957   1.402       .  A
C2957      C2958   1.402       .  A
C2957      H2961   1.084       .  S
O2960      H2964   0.992       .  S
O2962      H2963   0.992       .  S
C2965      C2966   1.406       .  A
C2965      C2970   1.412       .  A
C2966      C2967   1.396       .  A
C2966      H2971   1.084       .  S
C2967      C2968   1.406       .  A
C2967      O2972   1.372       .  S
C2968      C2969   1.403       .  A
C2969      C2970   1.399       .  A
C2969      H2973   1.084       .  S
C2970      O2974   1.372       .  S
O2972      H2976   0.992       .  S
O2974      H2975   0.992       .  S
