geometry optimzed in LAMMPS
_audit_creation_date              2020-12-01 
_audit_creation_method            'lammps2cif' 
_symmetry_space_group_name_H-M    'P1' 
_symmetry_Int_Tables_number       1 
_symmetry_cell_setting            triclinic 
loop_ 
_symmetry_equiv_pos_as_xyz 
  x,y,z 
_cell_length_a                    35.60394307 
_cell_length_b                    36.03097571827879 
_cell_length_c                    42.66925662640877 
_cell_angle_alpha                 89.91836922450018 
_cell_angle_beta                  90.58136624557616 
_cell_angle_gamma                 89.90165368590901 
loop_ 
_atom_site_label 
_atom_site_type_symbol 
_atom_site_fract_x 
_atom_site_fract_y 
_atom_site_fract_z 
_atom_site_charge 
O1          O  0.61104671  0.67832333  0.42977452    -0.82900
C2          C  0.55899123  0.72417076  0.05104597     0.96400
O3          O  0.59249370  0.71576711  0.04379113    -0.72100
O4          O  0.61294268  0.65275465  0.01847929    -0.75600
Al5        Al  0.61589738  0.70234312  0.00377985     1.49000
C6          C  0.60856377  0.62445055  0.00189975     0.91700
O7          O  0.52863332  0.64776877  0.47728574    -0.81900
O8          O  0.54018787  0.74909810  0.44242785    -0.75400
Al9        Al  0.57048186  0.66463668  0.45472696     1.90100
O10         O  0.50148038  0.70175150  0.48262554    -0.74500
O11         O  0.57679174  0.77790140  0.49556697    -0.74300
O12         O  0.53453505  0.73039576  0.03035862    -0.80000
O13         O  0.63231253  0.75244599  0.49487047    -0.78200
O14         O  0.57871716  0.70147765  0.48174612    -1.14300
O15         O  0.65293341  0.69028450  0.46668170    -0.73500
C16         C  0.64469126  0.68382387  0.43795487     0.97200
C17         C  0.49972175  0.66657334  0.48344573     0.93600
Al18       Al  0.54300982  0.73631928  0.48670849     1.55600
O19         O  0.59923909  0.62719807  0.47450391    -0.78200
C20         C  0.61198296  0.78013074  0.50008633     0.97700
C21         C  0.53106515  0.72448832  0.42246713     0.92600
O22         O  0.53986815  0.69131710  0.42724388    -0.83500
O23         O  0.71199795  0.57970774  0.34655466    -0.82900
C24         C  0.75869450  0.53231482  0.22587264     0.96400
O25         O  0.75319294  0.56589010  0.23375779    -0.72100
O26         O  0.68750487  0.58637733  0.25649122    -0.75600
Al27       Al  0.73759618  0.58935501  0.27283953     1.49000
C28         C  0.65868910  0.58690049  0.27318626     0.91700
O29         O  0.67778079  0.50065379  0.29511452    -0.81900
O30         O  0.77962603  0.50800806  0.33404868    -0.75400
Al31       Al  0.69617560  0.54054690  0.32014132     1.90100
O32         O  0.73212972  0.47225539  0.29241432    -0.74500
O33         O  0.81130595  0.54238041  0.28317332    -0.74300
O34         O  0.75996773  0.50752979  0.24648256    -0.80000
O35         O  0.78777967  0.59861749  0.28459779    -0.78200
O36         O  0.73454778  0.54732478  0.29433460    -1.14300
O37         O  0.72251153  0.62049085  0.30893312    -0.73500
C38         C  0.71581995  0.61302707  0.33769736     0.97200
C39         C  0.69696794  0.47220279  0.28819896     0.93600
Al40       Al  0.76809419  0.51095613  0.28973855     1.55600
O41         O  0.66077854  0.57295620  0.30010243    -0.78200
C42         C  0.81538663  0.57713281  0.28144242     0.97700
C43         C  0.75443680  0.49872884  0.35337193     0.92600
O44         O  0.72067216  0.50695518  0.34784626    -0.83500
O45         O  0.53920903  0.27749884  0.17639670    -0.82900
C46         C  0.56558518  0.24105777  0.29720636     0.96400
O47         O  0.54073929  0.23505728  0.27686111    -0.72100
O48         O  0.50433769  0.26511212  0.23170906    -0.75600
Al49       Al  0.54357291  0.22891349  0.23365702     1.49000
C50         C  0.50452579  0.29989308  0.23585481     0.91700
O51         O  0.60598236  0.33613928  0.22205593    -0.81900
O52         O  0.65410084  0.27085802  0.21355762    -0.75400
Al53       Al  0.57317801  0.30083146  0.20346363     1.90100
O54         O  0.62214912  0.30892447  0.26488812    -0.74500
O55         O  0.63201432  0.20852670  0.24325300    -0.74300
O56         O  0.59883617  0.24904854  0.28950898    -0.80000
O57         O  0.57515628  0.18575625  0.24027509    -0.78200
O58         O  0.58047111  0.26231591  0.22917552    -1.14300
O59         O  0.53968396  0.21886667  0.18920425    -0.73500
C60         C  0.53008116  0.24469209  0.17049723     0.97200
C61         C  0.62113334  0.33754201  0.24852813     0.93600
Al62       Al  0.62314876  0.25943048  0.25067324     1.55600
O63         O  0.53332745  0.31881470  0.22893101    -0.78200
C64         C  0.60976408  0.18171986  0.24635065     0.97700
C65         C  0.64572794  0.27894767  0.18506718     0.92600
O66         O  0.61202534  0.28538688  0.17699032    -0.83500
O67         O  0.72171767  0.46026561  0.09811511    -0.82900
C68         C  0.76128101  0.43447569  0.47686637     0.96400
O69         O  0.75852235  0.45989650  0.49665349    -0.72100
O70         O  0.72876424  0.49720094  0.04203309    -0.75600
Al71       Al  0.76756604  0.45857266  0.03875649     1.49000
C72         C  0.69303348  0.49494566  0.04016182     0.91700
O73         O  0.66195319  0.39381820  0.04795934    -0.81900
O74         O  0.72365864  0.34704955  0.05762416    -0.75400
Al75       Al  0.69690020  0.42619065  0.06986199     1.90100
O76         O  0.69162785  0.38238197  0.00472820    -0.74500
O77         O  0.78971287  0.37086460  0.03652925    -0.74300
O78         O  0.76068735  0.40065157  0.48541833    -0.80000
O79         O  0.81220087  0.42714414  0.03138532    -0.78200
O80         O  0.73530650  0.42119842  0.04370969    -1.14300
O81         O  0.78013572  0.46078297  0.08242431    -0.73500
C82         C  0.75575473  0.46898441  0.10258120     0.97200
C83         C  0.66180855  0.38202772  0.02007473     0.93600
Al84       Al  0.74030199  0.37927345  0.02254048     1.55600
O85         O  0.67636413  0.46515898  0.04635639    -0.78200
C86         C  0.81694765  0.39212094  0.03136960     0.97700
C87         C  0.71700704  0.35395284  0.08644217     0.92600
O88         O  0.71392080  0.38710998  0.09556950    -0.83500
O89         O  0.41477749  0.28976311  0.42743976    -0.82900
C90         C  0.46339311  0.24751689  0.04785370     0.96400
O91         O  0.42994405  0.25521527  0.03977707    -0.72100
O92         O  0.40492008  0.31633062  0.01415721    -0.75600
Al93       Al  0.40462854  0.26602182  0.00086575     1.49000
C94         C  0.40638577  0.34424608  0.99670465     0.91700
O95         O  0.49860445  0.32417771  0.47297635    -0.81900
O96         O  0.49161280  0.22297571  0.43913372    -0.75400
Al97       Al  0.45594136  0.30537604  0.45160519     1.90100
O98         O  0.52806007  0.27124746  0.47925904    -0.74500
O99         O  0.45759153  0.19166804  0.49139596    -0.74300
O100        O  0.48856138  0.24434172  0.02771282    -0.80000
O101        O  0.40045468  0.21419760  0.49050029    -0.78200
O102        O  0.45088862  0.26792321  0.47853717    -1.14300
O103        O  0.37522095  0.27579959  0.46477374    -0.73500
C104        C  0.38202032  0.28164496  0.43595650     0.97200
C105        C  0.52832993  0.30635342  0.47924511     0.93600
Al106      Al  0.48880542  0.23517949  0.48339752     1.55600
O107        O  0.42670183  0.34121165  0.47253148    -0.78200
C108        C  0.42247673  0.18723685  0.49399964     0.97700
C109        C  0.49751870  0.24806370  0.41882233     0.92600
O110        O  0.48589781  0.28026327  0.42347857    -0.83500
O111        O  0.31523687  0.38090157  0.34750735    -0.82900
C112        C  0.27239461  0.43629332  0.22805158     0.96400
O113        O  0.27761608  0.40238944  0.23476399    -0.72100
O114        O  0.34089008  0.37920636  0.25858059    -0.75600
Al115      Al  0.29067221  0.37646829  0.27301525     1.49000
C116        C  0.36964051  0.37755822  0.27564042     0.91700
O117        O  0.35197879  0.46269015  0.30142238    -0.81900
O118        O  0.24970963  0.45611155  0.33665892    -0.75400
Al119      Al  0.33235867  0.42123290  0.32357900     1.90100
O120        O  0.29799725  0.49205778  0.29703454    -0.74500
O121        O  0.21756174  0.42427021  0.28424398    -0.74300
O122        O  0.26944149  0.45999011  0.24936591    -0.80000
O123        O  0.23988758  0.36757535  0.28199877    -0.78200
O124        O  0.29417265  0.41709814  0.29640358    -1.14300
O125        O  0.30351394  0.34288290  0.30806182    -0.73500
C126        C  0.30992182  0.34846896  0.33719752     0.97200
C127        C  0.33333599  0.49192535  0.29531227     0.93600
Al128      Al  0.26132096  0.45449105  0.29244447     1.55600
O129        O  0.36793347  0.38979585  0.30310216    -0.78200
C130        C  0.21279320  0.38990343  0.27998664     0.97700
C131        C  0.27515383  0.46341903  0.35677543     0.92600
O132        O  0.30815422  0.45283427  0.35200922    -0.83500
O133        O  0.48249157  0.68501930  0.17947407    -0.82900
C134        C  0.46420332  0.72663627  0.29927541     0.96400
O135        O  0.48848726  0.72867623  0.27821418    -0.72100
O136        O  0.52144897  0.69870322  0.23078583    -0.75600
Al137      Al  0.48125650  0.73483207  0.23505744     1.49000
C138        C  0.52127965  0.66388155  0.23578405     0.91700
O139        O  0.41891092  0.62790074  0.22955468    -0.81900
O140        O  0.36952839  0.68990859  0.22015436    -0.75400
Al141      Al  0.45015049  0.66210913  0.20823364     1.90100
O142        O  0.40658856  0.65696894  0.27237863    -0.74500
O143        O  0.39273316  0.75485428  0.24377181    -0.74300
O144        O  0.42988798  0.72068763  0.29250464    -0.80000
O145        O  0.44951212  0.77786123  0.24325347    -0.78200
O146        O  0.44442235  0.70128411  0.23294560    -1.14300
O147        O  0.47885855  0.74416878  0.19028716    -0.73500
C148        C  0.48675994  0.71823216  0.17130368     0.97200
C149        C  0.40651658  0.62756869  0.25687839     0.93600
Al150      Al  0.40307850  0.70537760  0.25525243     1.55600
O151        O  0.49142374  0.64523031  0.23244503    -0.78200
C152        C  0.41454989  0.78193103  0.24727228     0.97700
C153        C  0.37625476  0.68186007  0.19151252     0.92600
O154        O  0.40952425  0.67646946  0.18256044    -0.83500
O155        O  0.30266681  0.50527183  0.09674202    -0.82900
C156        C  0.26213276  0.53663753  0.47653310     0.96400
O157        O  0.26116148  0.51103454  0.49643423    -0.72100
O158        O  0.28981325  0.47185565  0.04053563    -0.75600
Al159      Al  0.25091258  0.51021313  0.04046161     1.49000
C160        C  0.32526146  0.47409061  0.03701000     0.91700
O161        O  0.35700946  0.57587083  0.04879253    -0.81900
O162        O  0.29434448  0.62072721  0.06176258    -0.75400
Al163      Al  0.32409189  0.54128194  0.06921730     1.90100
O164        O  0.32594527  0.59039024  0.00657696    -0.74500
O165        O  0.22954881  0.59704815  0.03921916    -0.74300
O166        O  0.26648267  0.57016022  0.48496887    -0.80000
O167        O  0.20571327  0.54113846  0.03721342    -0.78200
O168        O  0.28382079  0.54747943  0.04474999    -1.14300
O169        O  0.24288037  0.50568939  0.08467903    -0.73500
C170        C  0.26928581  0.49677570  0.10320608     0.97200
C171        C  0.35601626  0.59066781  0.02204315     0.93600
Al172      Al  0.27771017  0.59037065  0.02495041     1.55600
O173        O  0.34261082  0.50385692  0.04284343    -0.78200
C174        C  0.20155128  0.57605522  0.03785028     0.97700
C175        C  0.30269172  0.61185110  0.09012082     0.92600
O176        O  0.30842153  0.57824380  0.09720502    -0.83500
O177        O  0.10617833  0.17776415  0.18314131    -0.82900
C178        C  0.05818588  0.23276899  0.30078056     0.96400
O179        O  0.09236596  0.22964315  0.29267038    -0.72100
O180        O  0.11542395  0.16516606  0.27376697    -0.75600
Al181      Al  0.11624329  0.21245657  0.25442133     1.49000
C182        C  0.11314068  0.13458233  0.26007980     0.91700
O183        O  0.02584192  0.15089483  0.23674680    -0.81900
O184        O  0.03348248  0.24787530  0.19267921    -0.75400
Al185      Al  0.06624267  0.16598413  0.21072813     1.90100
O186        O  0.99638256  0.20434831  0.23457842    -0.74500
O187        O  0.06686470  0.28311600  0.24370726    -0.74300
O188        O  0.03240188  0.23297927  0.28053235    -0.80000
O189        O  0.12383202  0.26114082  0.23969247    -0.78200
O190        O  0.07326237  0.20641062  0.23389226    -1.14300
O191        O  0.14754525  0.19509313  0.21902824    -0.73500
C192        C  0.13987223  0.18417472  0.19113811     0.97200
C193        C  0.99674409  0.17031970  0.24131980     0.93600
Al194      Al  0.03583693  0.23951578  0.23721366     1.55600
O195        O  0.09784849  0.13283749  0.23352442    -0.78200
C196        C  0.10196818  0.28793638  0.24445371     0.97700
C197        C  0.02477622  0.22126213  0.17441794     0.92600
O198        O  0.03325365  0.18840347  0.18154042    -0.83500
O199        O  0.21889397  0.07611133  0.10207392    -0.82900
C200        C  0.25651172  0.03416502  0.47804057     0.96400
O201        O  0.24905654  0.06688785  0.48688530    -0.72100
O202        O  0.19044810  0.08547080  0.01226404    -0.75600
Al203      Al  0.24094978  0.08835477  0.02833073     1.49000
C204        C  0.16205977  0.08338226  0.02962981     0.91700
O205        O  0.18064612  0.00063420  0.05070259    -0.81900
O206        O  0.28511304  0.00364448  0.08411402    -0.75400
Al207      Al  0.20147257  0.03796410  0.07541270     1.90100
O208        O  0.23308970  0.96950821  0.04302783    -0.74500
O209        O  0.31459005  0.04084685  0.03472813    -0.74300
O210        O  0.25988564  0.00856694  0.49772586    -0.80000
O211        O  0.29091229  0.09669363  0.04085858    -0.78200
O212        O  0.23827247  0.04521317  0.04822814    -1.14300
O213        O  0.22528091  0.11832063  0.06534528    -0.73500
C214        C  0.22016532  0.10994283  0.09417947     0.97200
C215        C  0.19738271  0.97187378  0.04185525     0.93600
Al216      Al  0.27101998  0.00865478  0.04106206     1.55600
O217        O  0.16540694  0.06999049  0.05668631    -0.78200
C218        C  0.31863799  0.07582256  0.03572494     0.97700
C219        C  0.26158862  0.99438808  0.10453812     0.92600
O220        O  0.22744223  0.00283139  0.10124580    -0.83500
O221        O  0.04064789  0.77835953  0.42798176    -0.82900
C222        C  0.05750942  0.75042737  0.05033593     0.96400
O223        O  0.03345739  0.74473134  0.02926424    -0.72100
O224        O  0.99690908  0.77077680  0.98186443    -0.75600
Al225      Al  0.04204114  0.73161573  0.48654316     1.49000
C226        C  0.00048081  0.80231979  0.48443249     0.91700
O227        O  0.09999904  0.83970932  0.47767672    -0.81900
O228        O  0.15312953  0.77521537  0.46785272    -0.75400
Al229      Al  0.07120335  0.80381777  0.45637647     1.90100
O230        O  0.11265465  0.81874289  0.01707115    -0.74500
O231        O  0.12723782  0.71970359  0.99482076    -0.74300
O232        O  0.09158645  0.75690955  0.04349452    -0.80000
O233        O  0.07454999  0.68895385  0.49557073    -0.78200
O234        O  0.07860316  0.76571151  0.48231404    -1.14300
O235        O  0.04020891  0.72004240  0.44230171    -0.73500
C236        C  0.03174155  0.74530881  0.42266455     0.97200
C237        C  0.11076859  0.84658823  0.99965555     0.93600
Al238      Al  0.11604072  0.76930387  0.00353751     1.55600
O239        O  0.02962565  0.82035478  0.47911308    -0.78200
C240        C  0.10968513  0.68584830  0.49990162     0.97700
C241        C  0.14524230  0.78394946  0.43954610     0.92600
O242        O  0.11185122  0.79090076  0.43137977    -0.83500
O243        O  0.21966342  0.96257616  0.35004632    -0.82900
C244        C  0.25656423  0.93568422  0.22754671     0.96400
O245        O  0.25469752  0.96158406  0.24708096    -0.72100
O246        O  0.22823551  0.99902870  0.29302312    -0.75600
Al247      Al  0.26468600  0.96009222  0.29015957     1.49000
C248        C  0.19278305  0.99928639  0.29189007     0.91700
O249        O  0.15860651  0.89964299  0.30208763    -0.81900
O250        O  0.22267279  0.84994474  0.31253916    -0.75400
Al251      Al  0.19424598  0.93016746  0.32269708     1.90100
O252        O  0.18595544  0.87998089  0.26025499    -0.74500
O253        O  0.28670133  0.87287766  0.28849532    -0.74300
O254        O  0.25184413  0.90234646  0.23647480    -0.80000
O255        O  0.30876162  0.92914105  0.28311825    -0.78200
O256        O  0.23208255  0.92317685  0.29637623    -1.14300
O257        O  0.27785192  0.96464704  0.33413956    -0.73500
C258        C  0.25312652  0.97235136  0.35437290     0.97200
C259        C  0.15650929  0.88352630  0.27615220     0.93600
Al260      Al  0.23642799  0.88006456  0.27620677     1.55600
O261        O  0.17496507  0.97028479  0.29893500    -0.78200
C262        C  0.31372839  0.89438414  0.28336686     0.97700
C263        C  0.21536483  0.85774067  0.34094571     0.92600
O264        O  0.20991493  0.89092478  0.34911819    -0.83500
O265        O  0.90661357  0.79313046  0.18475773    -0.82900
C266        C  0.96523743  0.74374555  0.29976015     0.96400
O267        O  0.93046233  0.74686158  0.29329771    -0.72100
O268        O  0.90330818  0.80957975  0.27462779    -0.75600
Al269      Al  0.90264934  0.76197568  0.25652391     1.49000
C270        C  0.90289749  0.83954223  0.25989484     0.91700
O271        O  0.98767695  0.82744408  0.23392680    -0.81900
O272        O  0.98004887  0.72861505  0.19082143    -0.75400
Al273      Al  0.94698661  0.80888871  0.20991799     1.90100
O274        O  0.02071419  0.77577092  0.23110469    -0.74500
O275        O  0.95329982  0.69270256  0.24374863    -0.74300
O276        O  0.98954052  0.74387785  0.27863802    -0.80000
O277        O  0.89534960  0.71284317  0.24333191    -0.78200
O278        O  0.94367593  0.76906973  0.23411734    -1.14300
O279        O  0.86786330  0.77695932  0.22251587    -0.73500
C280        C  0.87383273  0.78586476  0.19403563     0.97200
C281        C  0.01847953  0.81032408  0.23683515     0.93600
Al282      Al  0.98245984  0.73756654  0.23560281     1.55600
O283        O  0.91492004  0.84084275  0.23245449    -0.78200
C284        C  0.91847099  0.68680997  0.24682091     0.97700
C285        C  0.98608045  0.75504946  0.17178900     0.92600
O286        O  0.97988271  0.78792654  0.18018402    -0.83500
O287        O  0.81786237  0.88933920  0.09867175    -0.82900
C288        C  0.76340682  0.93414166  0.47769685     0.96400
O289        O  0.77110699  0.90109568  0.48541884    -0.72100
O290        O  0.82801320  0.87849064  0.00835403    -0.75600
Al291      Al  0.78143850  0.87842195  0.02838288     1.49000
C292        C  0.85938217  0.87996725  0.02147448     0.91700
O293        O  0.84665554  0.96657973  0.04447059    -0.81900
O294        O  0.75037222  0.96153952  0.09106185    -0.75400
Al295      Al  0.83075150  0.92755967  0.07060709     1.90100
O296        O  0.79284686  0.99722103  0.04478170    -0.74500
O297        O  0.70975907  0.92682835  0.04435798    -0.74300
O298        O  0.75727428  0.95862630  0.49808042    -0.80000
O299        O  0.73413316  0.87127616  0.04424051    -0.78200
O300        O  0.78874200  0.92119888  0.04814818    -1.14300
O301        O  0.79939727  0.84777845  0.06393875    -0.73500
C302        C  0.80938031  0.85627894  0.09183745     0.97200
C303        C  0.82805390  0.99604109  0.03999908     0.93600
Al304      Al  0.75500748  0.95808915  0.04588365     1.55600
O305        O  0.86276052  0.89487001  0.04794440    -0.78200
C306        C  0.70581827  0.89188462  0.04461433     0.97700
C307        C  0.77827098  0.96957642  0.10848506     0.92600
O308        O  0.81085996  0.96190757  0.09953052    -0.83500
O309        O  0.99244289  0.19237866  0.42691963    -0.82900
C310        C  0.96256295  0.22079841  0.04995464     0.96400
O311        O  0.98895666  0.22136240  0.03084575    -0.72100
O312        O  0.02822292  0.19427884  0.98579547    -0.75600
Al313      Al  0.98704545  0.23302409  0.48852353     1.49000
C314        C  0.02558944  0.16057580  0.48551843     0.91700
O315        O  0.92478427  0.12887332  0.46767302    -0.81900
O316        O  0.87657998  0.19304899  0.46236413    -0.75400
Al317      Al  0.95742254  0.16569563  0.45148477     1.90100
O318        O  0.90670795  0.15373136  0.01459556    -0.74500
O319        O  0.89974153  0.25453277  0.99016276    -0.74300
O320        O  0.92893227  0.21640676  0.04055279    -0.80000
O321        O  0.95530397  0.27578357  0.49632712    -0.78200
O322        O  0.94999142  0.20102517  0.48018296    -1.14300
O323        O  0.99169162  0.24865704  0.44588275    -0.73500
C324        C  0.00058295  0.22621858  0.42457229     0.97200
C325        C  0.90940148  0.12516032  0.99791451     0.93600
Al326      Al  0.90698774  0.20373912  0.00015418     1.55600
O327        O  0.99655500  0.14389110  0.47579044    -0.78200
C328        C  0.92014518  0.28058418  0.49754531     0.97700
C329        C  0.88446636  0.18904926  0.43346917     0.92600
O330        O  0.91829352  0.18432362  0.42537577    -0.83500
O331        O  0.80058921  0.02969749  0.35677481    -0.82900
C332        C  0.77140048  0.04534932  0.22726549     0.96400
O333        O  0.75306165  0.02448916  0.24545556    -0.72100
O334        O  0.79742360  0.98062681  0.27789071    -0.75600
Al335      Al  0.75858883  0.01375697  0.28947373     1.49000
C336        C  0.82820100  0.97447180  0.29170560     0.91700
O337        O  0.86455249  0.06055965  0.29192375    -0.81900
O338        O  0.77775078  0.12170725  0.31753690    -0.75400
Al339      Al  0.82953938  0.04595257  0.32283387     1.90100
O340        O  0.83390175  0.10942025  0.27657165    -0.74500
O341        O  0.73053979  0.09194851  0.27448656    -0.74300
O342        O  0.78884820  0.07345442  0.23758339    -0.80000
O343        O  0.71408356  0.04132549  0.29917990    -0.78200
O344        O  0.79004523  0.05151276  0.29719283    -1.14300
O345        O  0.75939050  0.99483833  0.33189295    -0.73500
C346        C  0.77689262  0.00381615  0.35674186     0.97200
C347        C  0.86421613  0.09188100  0.27907533     0.93600
Al348      Al  0.78304644  0.09524276  0.27817385     1.55600
O349        O  0.84115687  0.99683471  0.31147521    -0.78200
C350        C  0.70557289  0.07129445  0.28549137     0.97700
C351        C  0.80324198  0.12104473  0.33865978     0.92600
O352        O  0.82647445  0.09454802  0.34019944    -0.83500
C353        C  0.79854841  0.15042342  0.39181002    -0.03000
C354        C  0.81031126  0.15241959  0.36044480     0.06700
C355        C  0.83961419  0.17685017  0.35290956    -0.03100
C356        C  0.86243063  0.19213034  0.37678569    -0.03100
C357        C  0.85408703  0.18561799  0.40877635     0.06800
C358        C  0.81893244  0.16906673  0.41572402    -0.03300
Br359      Br  0.79928103  0.16906657  0.45776604    -0.01800
Br360      Br  0.75683119  0.11906414  0.40231816    -0.01900
Br361      Br  0.90576288  0.22060457  0.36480198    -0.01900
Br362      Br  0.85030802  0.18672425  0.30950629    -0.01900
C363        C  0.89434237  0.07803878  0.03932547    -0.03000
C364        C  0.89127952  0.09005636  0.00792944     0.06700
C365        C  0.86508834  0.07287671  0.48386199    -0.03100
C366        C  0.84732609  0.03943083  0.99752809    -0.03100
C367        C  0.84813794  0.02948711  0.02939685     0.06800
C368        C  0.87134292  0.04921927  0.05041714    -0.03300
Br369      Br  0.87015531  0.03814027  0.09465625    -0.01800
Br370      Br  0.93439065  0.09651417  0.06555495    -0.01900
Br371      Br  0.80059992  0.02726505  0.47145781    -0.01900
Br372      Br  0.85733033  0.08907029  0.44118518    -0.01900
C373        C  0.73668353  0.97980788  0.40029515    -0.03000
C374        C  0.77196096  0.98224141  0.38595026     0.06700
C375        C  0.80346890  0.96489378  0.40024942    -0.03100
C376        C  0.79996077  0.94687806  0.42933989    -0.03100
C377        C  0.76489779  0.94573911  0.44439019     0.06800
C378        C  0.73326378  0.96173689  0.42945276    -0.03300
Br379      Br  0.68535670  0.95986498  0.44930707    -0.01800
Br380      Br  0.69370384  0.00383986  0.38124781    -0.01900
Br381      Br  0.84452498  0.92817809  0.45023826    -0.01900
Br382      Br  0.85211884  0.96597548  0.38061730    -0.01900
C383        C  0.74888787  0.01926141  0.14286663    -0.03000
C384        C  0.77491696  0.98976472  0.13891883     0.06700
C385        C  0.80274383  0.98395685  0.16258991    -0.03100
C386        C  0.80459897  0.00743600  0.18867418    -0.03100
C387        C  0.77586844  0.03282163  0.19454120     0.06800
C388        C  0.74880845  0.03999780  0.17107998    -0.03300
Br389      Br  0.71517715  0.08132302  0.17626624    -0.01800
Br390      Br  0.71523662  0.03352311  0.10926488    -0.01900
Br391      Br  0.84865634  0.00801090  0.21497961    -0.01900
Br392      Br  0.83778610  0.94282198  0.16164319    -0.01900
C393        C  0.84881083  0.77639723  0.14043038    -0.03000
C394        C  0.84309098  0.79088271  0.17057675     0.06700
C395        C  0.81619748  0.81926559  0.17430380    -0.03100
C396        C  0.80014754  0.83666994  0.14765162    -0.03100
C397        C  0.81326724  0.82797288  0.11734030     0.06800
C398        C  0.83620335  0.79620857  0.11381656    -0.03300
Br399      Br  0.85630953  0.78297587  0.07392529    -0.01800
Br400      Br  0.87676856  0.73074221  0.13627192    -0.01900
Br401      Br  0.76156488  0.87384192  0.15265079    -0.01900
Br402      Br  0.80427735  0.83724852  0.21540540    -0.01900
C403        C  0.85052764  0.87229303  0.28689926    -0.03000
C404        C  0.88667500  0.87320949  0.27362541     0.06700
C405        C  0.90525448  0.90737942  0.26972833    -0.03100
C406        C  0.88662369  0.94065195  0.27654683    -0.03100
C407        C  0.84874371  0.93985480  0.28594570     0.06800
C408        C  0.83113343  0.90564020  0.29203555    -0.03300
Br409      Br  0.78068335  0.90429081  0.30828745    -0.01800
Br410      Br  0.82677064  0.82585941  0.29772501    -0.01900
Br411      Br  0.91339111  0.98687239  0.27222274    -0.01900
Br412      Br  0.95685631  0.90871478  0.25603796    -0.01900
C413        C  0.09014449  0.86054363  0.28734100    -0.03000
C414        C  0.11950076  0.86750183  0.26545259     0.06700
C415        C  0.11305165  0.85791473  0.23353473    -0.03100
C416        C  0.08002116  0.83919828  0.22430382    -0.03100
C417        C  0.05237061  0.83099186  0.24637690     0.06800
C418        C  0.05671146  0.84299409  0.27746265    -0.03300
Br419      Br  0.01645676  0.83487972  0.30667169    -0.01800
Br420      Br  0.09408724  0.87321189  0.33144808    -0.01900
Br421      Br  0.07130606  0.82615796  0.18088317    -0.01900
Br422      Br  0.14723129  0.87225133  0.20115661    -0.01900
C423        C  0.92919699  0.80417318  0.48931189    -0.03000
C424        C  0.96457215  0.82207079  0.49224636     0.06700
C425        C  0.95908347  0.86509200  0.99530980    -0.03100
C426        C  0.92542753  0.88299207  0.00345143    -0.03100
C427        C  0.89226377  0.86266018  0.00679668     0.06800
C428        C  0.89576852  0.82332637  0.49622178    -0.03300
Br429      Br  0.84800702  0.79976921  0.48730053    -0.01800
Br430      Br  0.92421742  0.75307191  0.47536554    -0.01900
Br431      Br  0.92362683  0.93647494  0.00761838    -0.01900
Br432      Br  0.00336377  0.89612628  0.99250812    -0.01900
C433        C  0.18195626  0.80021646  0.35860166    -0.03000
C434        C  0.20868166  0.82818971  0.36480098     0.06700
C435        C  0.22243092  0.83237263  0.39584453    -0.03100
C436        C  0.20554929  0.81308085  0.42094510    -0.03100
C437        C  0.17439824  0.78979472  0.41507614     0.06800
C438        C  0.16526350  0.78091031  0.38361073    -0.03300
Br439      Br  0.12754365  0.74392019  0.37473594    -0.01800
Br440      Br  0.16406029  0.79143013  0.31637768    -0.01900
Br441      Br  0.22289816  0.82169037  0.46333917    -0.01900
Br442      Br  0.26337232  0.86591352  0.40414834    -0.01900
C443        C  0.04847388  0.72254970  0.10448485    -0.03000
C444        C  0.04309333  0.75191351  0.08287390     0.06700
C445        C  0.01604119  0.77922206  0.08947764    -0.03100
C446        C  0.99424432  0.77699175  0.11659128    -0.03100
C447        C  0.00241167  0.75002797  0.13998435     0.06800
C448        C  0.02982837  0.72265297  0.13364985    -0.03300
Br449      Br  0.04276115  0.68543927  0.16455603    -0.01800
Br450      Br  0.07808901  0.68019914  0.09335264    -0.01900
Br451      Br  0.95119015  0.80974405  0.11956427    -0.01900
Br452      Br  0.00802333  0.81998235  0.06082018    -0.01900
C453        C  0.00411165  0.71194559  0.34139946    -0.03000
C454        C  0.97808860  0.73998792  0.33256859     0.06700
C455        C  0.96591410  0.76581059  0.35483297    -0.03100
C456        C  0.98190124  0.76575075  0.38489059    -0.03100
C457        C  0.00959426  0.73899836  0.39355657     0.06800
C458        C  0.01923480  0.71100281  0.37209172    -0.03300
Br459      Br  0.05473579  0.67280400  0.38379153    -0.01800
Br460      Br  0.01905223  0.67452220  0.31159108    -0.01900
Br461      Br  0.96605202  0.80460240  0.41296469    -0.01900
Br462      Br  0.92982488  0.80407904  0.34372963    -0.01900
C463        C  0.14977899  0.92282093  0.05169841    -0.03000
C464        C  0.17415597  0.94075714  0.03078495     0.06700
C465        C  0.17252974  0.93202171  0.99866491    -0.03100
C466        C  0.15192701  0.89952064  0.49167175    -0.03100
C467        C  0.12884463  0.88161962  0.00962016     0.06800
C468        C  0.12806841  0.89259734  0.04142192    -0.03300
Br469      Br  0.09632722  0.86752785  0.07109905    -0.01800
Br470      Br  0.14456843  0.94073023  0.09414562    -0.01900
Br471      Br  0.14831521  0.89060663  0.44690091    -0.01900
Br472      Br  0.19430135  0.96294694  0.47128540    -0.01900
C473        C  0.10560543  0.08987079  0.48991575    -0.03000
C474        C  0.12519184  0.09899123  0.01958361     0.06700
C475        C  0.10487908  0.12186059  0.04028021    -0.03100
C476        C  0.07454022  0.14310201  0.02903190    -0.03100
C477        C  0.05819267  0.13840640  0.49725123     0.06800
C478        C  0.07446770  0.11038721  0.47851659    -0.03300
Br479      Br  0.05543583  0.10078399  0.43676847    -0.01800
Br480      Br  0.12576532  0.04975688  0.46539567    -0.01900
Br481      Br  0.05279169  0.17883189  0.05681655    -0.01900
Br482      Br  0.11560258  0.12237511  0.08485823    -0.01900
C483        C  0.28881570  0.98302079  0.40490252    -0.03000
C484        C  0.26092858  0.99410980  0.38326026     0.06700
C485        C  0.23612166  0.02337155  0.39145877    -0.03100
C486        C  0.23801566  0.03990472  0.42119029    -0.03100
C487        C  0.26174777  0.02468622  0.44437890     0.06800
C488        C  0.28899527  0.99789781  0.43550293    -0.03300
Br489      Br  0.32800859  0.98258373  0.46459340    -0.01800
Br490      Br  0.32470996  0.94529011  0.39371855    -0.01900
Br491      Br  0.20744625  0.08309604  0.42958106    -0.01900
Br492      Br  0.19679518  0.03983764  0.36340527    -0.01900
C493        C  0.29196475  0.99068614  0.15700767    -0.03000
C494        C  0.27244733  0.97314660  0.13271295     0.06700
C495        C  0.25643397  0.93807889  0.13794894    -0.03100
C496        C  0.25438849  0.92358948  0.16857512    -0.03100
C497        C  0.26574819  0.94578226  0.19436884     0.06800
C498        C  0.28730612  0.97838088  0.18802706    -0.03300
Br499      Br  0.31267739  0.00627332  0.22066543    -0.01800
Br500      Br  0.32630754  0.03024704  0.14706194    -0.01900
Br501      Br  0.23740472  0.87329390  0.17385549    -0.01900
Br502      Br  0.23921493  0.90940313  0.10253429    -0.01900
C503        C  0.96483237  0.12684613  0.27782433    -0.03000
C504        C  0.96239755  0.15295274  0.25337021     0.06700
C505        C  0.92704299  0.16163766  0.24017647    -0.03100
C506        C  0.89673544  0.13789707  0.24523018    -0.03100
C507        C  0.89912501  0.11014078  0.26873254     0.06800
C508        C  0.93329394  0.10546557  0.28571390    -0.03300
Br509      Br  0.93754143  0.07202021  0.32104864    -0.01800
Br510      Br  0.00893429  0.12644313  0.30465244    -0.01900
Br511      Br  0.85305842  0.14331240  0.21812485    -0.01900
Br512      Br  0.91736878  0.20864154  0.21945539    -0.01900
C513        C  0.06628461  0.21601805  0.35773980    -0.03000
C514        C  0.04757749  0.23687267  0.33427935     0.06700
C515        C  0.01783014  0.26112654  0.34311174    -0.03100
C516        C  0.00512623  0.26157631  0.37430807    -0.03100
C517        C  0.02148746  0.23770633  0.39653480     0.06800
C518        C  0.05410481  0.21778820  0.38886534    -0.03300
Br519      Br  0.08289304  0.19399528  0.42166639    -0.01800
Br520      Br  0.10549675  0.18118801  0.34758482    -0.01900
Br521      Br  0.96547216  0.29470459  0.38685534    -0.01900
Br522      Br  0.99386211  0.29411308  0.31318833    -0.01900
C523        C  0.95645261  0.20442784  0.10685080    -0.03000
C524        C  0.97250834  0.22649960  0.08347821     0.06700
C525        C  0.00088540  0.25244034  0.09200101    -0.03100
C526        C  0.01490625  0.25366366  0.12293904    -0.03100
C527        C  0.00364464  0.22662071  0.14465063     0.06800
C528        C  0.97435643  0.20157638  0.13618544    -0.03300
Br529      Br  0.96027188  0.16014567  0.16230718    -0.01800
Br530      Br  0.90967023  0.17870577  0.09950231    -0.01900
Br531      Br  0.05199833  0.29031422  0.13441273    -0.01900
Br532      Br  0.02038214  0.28747119  0.06187354    -0.01900
C533        C  0.21763214  0.12981977  0.15113123    -0.03000
C534        C  0.21107287  0.13850095  0.11910950     0.06700
C535        C  0.18923623  0.17059884  0.11241480    -0.03100
C536        C  0.16779459  0.18768000  0.13644103    -0.03100
C537        C  0.17012017  0.17497028  0.16781173     0.06800
C538        C  0.19779801  0.14819533  0.17513021    -0.03300
Br539      Br  0.20726663  0.13434281  0.21787922    -0.01800
Br540      Br  0.25386557  0.09233008  0.16276365    -0.01900
Br541      Br  0.13473850  0.22843543  0.12643155    -0.01900
Br542      Br  0.18709686  0.19079461  0.07051454    -0.01900
C543        C  0.11352756  0.06611747  0.26939215    -0.03000
C544        C  0.13094155  0.10086945  0.27351565     0.06700
C545        C  0.16808460  0.10242611  0.28527671    -0.03100
C546        C  0.18937606  0.06966117  0.28841667    -0.03100
C547        C  0.17205347  0.03434809  0.28418240     0.06800
C548        C  0.13381792  0.03307168  0.27436469    -0.03300
Br549      Br  0.10902980  0.98673254  0.26403674    -0.01800
Br550      Br  0.06075723  0.06355458  0.25855628    -0.01900
Br551      Br  0.24278193  0.07533562  0.29684447    -0.01900
Br552      Br  0.19089100  0.14938495  0.29689706    -0.01900
C553        C  0.14281363  0.59276954  0.00745951    -0.03000
C554        C  0.16473675  0.59532645  0.03525652     0.06700
C555        C  0.16167147  0.62749262  0.05349389    -0.03100
C556        C  0.14607795  0.65976822  0.04038125    -0.03100
C557        C  0.12456012  0.65786358  0.01219885     0.06800
C558        C  0.12069210  0.61586785  0.50460755    -0.03300
Br559      Br  0.08839341  0.60698466  0.46896600    -0.01800
Br560      Br  0.12860191  0.53550231  0.50834038    -0.01900
Br561      Br  0.16026356  0.70622324  0.05961225    -0.01900
Br562      Br  0.18498258  0.62840859  0.09467527    -0.01900
C563        C  0.38924087  0.82360541  0.28994425    -0.03000
C564        C  0.39832276  0.81792866  0.25790700     0.06700
C565        C  0.38676947  0.84462130  0.23583865    -0.03100
C566        C  0.36325176  0.87425676  0.24505315    -0.03100
C567        C  0.35057026  0.87700989  0.27633801     0.06800
C568        C  0.36617948  0.85339559  0.29897902    -0.03300
Br569      Br  0.35354190  0.86128351  0.34244689    -0.01800
Br570      Br  0.40465345  0.78989632  0.32225112    -0.01900
Br571      Br  0.34749413  0.90965066  0.21422299    -0.01900
Br572      Br  0.40044093  0.83828418  0.19251748    -0.01900
C573        C  0.35009744  0.68906732  0.13701344    -0.03000
C574        C  0.34590901  0.67499886  0.16770605     0.06700
C575        C  0.31875916  0.64725876  0.17274752    -0.03100
C576        C  0.30011073  0.63052939  0.14700170    -0.03100
C577        C  0.30949092  0.63988702  0.11576854     0.06800
C578        C  0.33258876  0.67130341  0.11111616    -0.03300
Br579      Br  0.34361486  0.68840588  0.06961282    -0.01800
Br580      Br  0.38145915  0.73206193  0.13066375    -0.01900
Br581      Br  0.26245126  0.59356120  0.15473966    -0.01900
Br582      Br  0.30997940  0.62877433  0.21442679    -0.01900
C583        C  0.12426418  0.33408779  0.28484265    -0.03000
C584        C  0.11881443  0.32425330  0.25292593     0.06700
C585        C  0.13806326  0.34411170  0.22995419    -0.03100
C586        C  0.16670391  0.36898234  0.23875927    -0.03100
C587        C  0.17567579  0.37478542  0.27079738     0.06800
C588        C  0.15261959  0.35930663  0.29366646    -0.03300
Br589      Br  0.16202772  0.37094699  0.33718847    -0.01800
Br590      Br  0.09517234  0.31226058  0.31730672    -0.01900
Br591      Br  0.19480933  0.39244930  0.20637160    -0.01900
Br592      Br  0.12592536  0.33553985  0.18641625    -0.01900
C593        C  0.38493359  0.52545867  0.26780860    -0.03000
C594        C  0.35246841  0.52680875  0.28643222     0.06700
C595        C  0.33754308  0.56180746  0.29529951    -0.03100
C596        C  0.35629618  0.59468399  0.28711786    -0.03100
C597        C  0.38981070  0.59310595  0.26957688     0.06800
C598        C  0.40444456  0.55818412  0.26069713    -0.03300
Br599      Br  0.45206174  0.55423390  0.23953110    -0.01800
Br600      Br  0.39961049  0.47978053  0.24744326    -0.01900
Br601      Br  0.33367769  0.64165376  0.29868524    -0.01900
Br602      Br  0.29004830  0.56633552  0.31706570    -0.01900
C603        C  0.24031065  0.47537900  0.18640533    -0.03000
C604        C  0.26822427  0.44878296  0.19490988     0.06700
C605        C  0.29124321  0.43383214  0.17135074    -0.03100
C606        C  0.28709660  0.44604685  0.14022760    -0.03100
C607        C  0.26289778  0.47583297  0.13266634     0.06800
C608        C  0.23749524  0.48849656  0.15527795    -0.03300
Br609      Br  0.19802077  0.52264892  0.14345282    -0.01800
Br610      Br  0.20507023  0.49397005  0.21681917    -0.01900
Br611      Br  0.31144873  0.41910461  0.10723095    -0.01900
Br612      Br  0.33146098  0.39968902  0.18149405    -0.01900
C613        C  0.29242044  0.53127159  0.42430530    -0.03000
C614        C  0.26068652  0.52549518  0.44298670     0.06700
C615        C  0.23220862  0.50120713  0.43212511    -0.03100
C616        C  0.23605886  0.48165859  0.40365659    -0.03100
C617        C  0.26854586  0.48626886  0.38545942     0.06800
C618        C  0.29673619  0.51157856  0.39607016    -0.03300
Br619      Br  0.34341597  0.51866105  0.37387324    -0.01800
Br620      Br  0.33256588  0.56296032  0.43910635    -0.01900
Br621      Br  0.19900674  0.44496100  0.39214456    -0.01900
Br622      Br  0.18829900  0.49323568  0.45699940    -0.01900
C623        C  0.36732255  0.12122913  0.05072647    -0.03000
C624        C  0.35513953  0.09438269  0.02930592     0.06700
C625        C  0.35373777  0.10922162  0.48814190    -0.03100
C626        C  0.38169962  0.13458296  0.47913909    -0.03100
C627        C  0.40278192  0.15312030  0.00932374     0.06800
C628        C  0.38940085  0.15120228  0.04062599    -0.03300
Br629      Br  0.39613751  0.19086038  0.06986306    -0.01800
Br630      Br  0.35044314  0.11812236  0.09368432    -0.01900
Br631      Br  0.38597682  0.15038892  0.43594163    -0.01900
Br632      Br  0.31989851  0.09272988  0.45615803    -0.01900
C633        C  0.36236096  0.27344260  0.38004074    -0.03000
C634        C  0.35211336  0.28233979  0.41106394     0.06700
C635        C  0.31777035  0.30106204  0.41566393    -0.03100
C636        C  0.30025738  0.31947726  0.39008284    -0.03100
C637        C  0.31591859  0.31741178  0.35979497     0.06800
C638        C  0.34472279  0.29133070  0.35444597    -0.03300
Br639      Br  0.36391748  0.28362207  0.31293413    -0.01800
Br640      Br  0.40206256  0.23799004  0.37283296    -0.01900
Br641      Br  0.25635474  0.34972267  0.39667139    -0.01900
Br642      Br  0.29586496  0.30341835  0.45676633    -0.01900
C643        C  0.37867883  0.42897942  0.04397295    -0.03000
C644        C  0.34699886  0.44145362  0.02656182     0.06700
C645        C  0.33782666  0.42397983  0.99797913    -0.03100
C646        C  0.36033426  0.39509251  0.98672572    -0.03100
C647        C  0.38844172  0.37938436  0.00609115     0.06800
C648        C  0.39811882  0.39688451  0.03449408    -0.03300
Br649      Br  0.44016909  0.37897069  0.05892202    -0.01800
Br650      Br  0.39593246  0.45529662  0.08082471    -0.01900
Br651      Br  0.35407367  0.37954682  0.94377795    -0.01900
Br652      Br  0.29519239  0.43948967  0.97321964    -0.01900
C653        C  0.87143769  0.35259794  0.04686976    -0.03000
C654        C  0.85358264  0.37411521  0.02373758     0.06700
C655        C  0.86482705  0.36942868  0.99215677    -0.03100
C656        C  0.88684717  0.33944067  0.48330282    -0.03100
C657        C  0.90531481  0.31713346  0.00653144     0.06800
C658        C  0.89682999  0.32426569  0.03842936    -0.03300
Br659      Br  0.91719054  0.29454456  0.07140462    -0.01800
Br660      Br  0.85831447  0.36030585  0.09023272    -0.01900
Br661      Br  0.89115218  0.32562256  0.43978837    -0.01900
Br662      Br  0.84352567  0.40009466  0.45950879    -0.01900
C663        C  0.59240320  0.38442603  0.00878401    -0.03000
C664        C  0.62708605  0.36592967  0.00597288     0.06700
C665        C  0.62825606  0.33133651  0.99040840    -0.03100
C666        C  0.59469233  0.31323499  0.98162667    -0.03100
C667        C  0.56398699  0.32637228  0.48665449     0.06800
C668        C  0.56319763  0.36115840  0.50209224    -0.03300
Br669      Br  0.51660281  0.38581182  0.51170793    -0.01800
Br670      Br  0.59465604  0.42707870  0.53061030    -0.01900
Br671      Br  0.59888913  0.26581108  0.96042470    -0.01900
Br672      Br  0.67576342  0.30760960  0.98119879    -0.01900
C673        C  0.62555400  0.11307812  0.24310067    -0.03000
C674        C  0.62458552  0.14645215  0.26031217     0.06700
C675        C  0.63993331  0.14639988  0.29129619    -0.03100
C676        C  0.65937748  0.11535349  0.30289352    -0.03100
C677        C  0.66705669  0.08569250  0.28310973     0.06800
C678        C  0.64760868  0.08297448  0.25425598    -0.03300
Br679      Br  0.65351323  0.03868093  0.22972457    -0.01800
Br680      Br  0.59909830  0.10958537  0.20367640    -0.01900
Br681      Br  0.68132529  0.11501366  0.34451381    -0.01900
Br682      Br  0.63785501  0.18842932  0.31862867    -0.01900
C683        C  0.47283574  0.34975515  0.26736915    -0.03000
C684        C  0.46999881  0.31848365  0.24757101     0.06700
C685        C  0.43386224  0.30525716  0.23907030    -0.03100
C686        C  0.40179048  0.32674395  0.24530113    -0.03100
C687        C  0.40449698  0.35882646  0.26446560     0.06800
C688        C  0.44039033  0.36973940  0.27586795    -0.03300
Br689      Br  0.44636553  0.41280767  0.30245887    -0.01800
Br690      Br  0.52050699  0.36211833  0.28685149    -0.01900
Br691      Br  0.35440402  0.31016114  0.22756462    -0.01900
Br692      Br  0.42637766  0.25604306  0.22153023    -0.01900
C693        C  0.56159476  0.26944607  0.35012829    -0.03000
C694        C  0.55460130  0.23907904  0.33044151     0.06700
C695        C  0.53258855  0.20911313  0.34128362    -0.03100
C696        C  0.51572360  0.21055523  0.37106220    -0.03100
C697        C  0.51967508  0.24264166  0.38971372     0.06800
C698        C  0.54290893  0.27226089  0.37880444    -0.03300
Br699      Br  0.54805170  0.31923548  0.40070252    -0.01800
Br700      Br  0.59490057  0.30893803  0.33708966    -0.01900
Br701      Br  0.48405355  0.17019480  0.38430234    -0.01900
Br702      Br  0.52546888  0.16585273  0.31516165    -0.01900
C703        C  0.46061830  0.26497073  0.10464179    -0.03000
C704        C  0.47396659  0.24123888  0.08121018     0.06700
C705        C  0.49949023  0.21248668  0.08960255    -0.03100
C706        C  0.51537025  0.21101572  0.12003369    -0.03100
C707        C  0.50690337  0.23909317  0.14176763     0.06800
C708        C  0.47865385  0.26569675  0.13398110    -0.03300
Br709      Br  0.46568616  0.30609010  0.16163172    -0.01800
Br710      Br  0.41759949  0.29667898  0.09719870    -0.01900
Br711      Br  0.55090591  0.17239297  0.13073018    -0.01900
Br712      Br  0.51133799  0.17368155  0.06008955    -0.01900
C713        C  0.72274728  0.32802370  0.14114396    -0.03000
C714        C  0.70911524  0.32409814  0.11005923     0.06700
C715        C  0.68187940  0.29642207  0.10405844    -0.03100
C716        C  0.66618461  0.27610523  0.12908145    -0.03100
C717        C  0.67484955  0.28528632  0.16051385     0.06800
C718        C  0.70543628  0.30927695  0.16628713    -0.03300
Br719      Br  0.72178714  0.31960858  0.20853254    -0.01800
Br720      Br  0.76397803  0.36094974  0.14964839    -0.01900
Br721      Br  0.63148954  0.23625047  0.12055514    -0.01900
Br722      Br  0.66126307  0.28970651  0.06265301    -0.01900
C723        C  0.87020726  0.61502390  0.29716736    -0.03000
C724        C  0.85214174  0.59402796  0.27408002     0.06700
C725        C  0.86376167  0.59752226  0.24257814    -0.03100
C726        C  0.88893174  0.62582944  0.23378306    -0.03100
C727        C  0.90348175  0.65008018  0.25653238     0.06800
C728        C  0.89567496  0.64293853  0.28858176    -0.03300
Br729      Br  0.91648292  0.67234834  0.32159348    -0.01800
Br730      Br  0.85782364  0.60652435  0.34057589    -0.01900
Br731      Br  0.90108165  0.63373535  0.19031434    -0.01900
Br732      Br  0.84408624  0.56520533  0.21093102    -0.01900
C733        C  0.69503792  0.40244508  0.28183738    -0.03000
C734        C  0.67853221  0.43783200  0.27637879     0.06700
C735        C  0.64412450  0.43993741  0.25955337    -0.03100
C736        C  0.62499851  0.40728817  0.25088785    -0.03100
C737        C  0.63963531  0.37210705  0.25944818     0.06800
C738        C  0.67438934  0.37005630  0.27579595    -0.03300
Br739      Br  0.69528311  0.32320747  0.29027708    -0.01800
Br740      Br  0.74718430  0.39621076  0.29487987    -0.01900
Br741      Br  0.57781242  0.41173740  0.22824833    -0.01900
Br742      Br  0.62495349  0.48718064  0.24459865    -0.01900
C743        C  0.58852675  0.59890589  0.27815619    -0.03000
C744        C  0.62300268  0.60554639  0.26238896     0.06700
C745        C  0.62332645  0.63274365  0.23809515    -0.03100
C746        C  0.58985279  0.65069227  0.22864769    -0.03100
C747        C  0.55636642  0.64461337  0.24510177     0.06800
C748        C  0.55621846  0.61980909  0.27057483    -0.03300
Br749      Br  0.51241582  0.61697858  0.29705440    -0.01800
Br750      Br  0.58338320  0.56088840  0.30994793    -0.01900
Br751      Br  0.58987962  0.68318340  0.19243942    -0.01900
Br752      Br  0.66924423  0.64927374  0.21884281    -0.01900
C753        C  0.74783685  0.54018010  0.16706590    -0.03000
C754        C  0.76457315  0.52073987  0.19246790     0.06700
C755        C  0.78732742  0.48915156  0.18553797    -0.03100
C756        C  0.78846330  0.47481307  0.15480923    -0.03100
C757        C  0.76559871  0.49025153  0.13128291     0.06800
C758        C  0.74849403  0.52486618  0.13669006    -0.03300
Br759      Br  0.72975231  0.55313977  0.10156313    -0.01800
Br760      Br  0.72340583  0.58735913  0.17277399    -0.01900
Br761      Br  0.82328829  0.43600054  0.14417588    -0.01900
Br762      Br  0.81880400  0.46559612  0.21706495    -0.01900
C763        C  0.73876165  0.44709750  0.39066281    -0.03000
C764        C  0.76244952  0.47724362  0.38253841     0.06700
C765        C  0.78938496  0.48961293  0.40447973    -0.03100
C766        C  0.78987512  0.47493281  0.43515749    -0.03100
C767        C  0.76516543  0.44566298  0.44350464     0.06800
C768        C  0.74086363  0.43081850  0.42062052    -0.03300
Br769      Br  0.70702245  0.39089595  0.43111885    -0.01800
Br770      Br  0.70151596  0.42838852  0.36165269    -0.01900
Br771      Br  0.82406725  0.49621835  0.46575191    -0.01900
Br772      Br  0.82404343  0.52838430  0.39340474    -0.01900
C773        C  0.65110221  0.80693871  0.04174155    -0.03000
C774        C  0.62704865  0.81287232  0.01523051     0.06700
C775        C  0.62135186  0.85044963  0.50570618    -0.03100
C776        C  0.64173965  0.88071265  0.51887227    -0.03100
C777        C  0.66897443  0.87206602  0.04292052     0.06800
C778        C  0.66851873  0.83690491  0.05696383    -0.03300
Br779      Br  0.69568338  0.82962629  0.09607001    -0.01800
Br780      Br  0.66418316  0.75844684  0.05766581    -0.01900
Br781      Br  0.62898835  0.93093693  0.50837600    -0.01900
Br782      Br  0.58477448  0.85944377  0.47300409    -0.01900
C783        C  0.42169185  0.66598625  0.99201471    -0.03000
C784        C  0.46340827  0.64712448  0.49080675     0.06700
C785        C  0.46327692  0.60908354  0.50021944    -0.03100
C786        C  0.42945235  0.59155525  0.50851895    -0.03100
C787        C  0.39008807  0.60932209  0.00970903     0.06800
C788        C  0.38836079  0.64597165  0.99792747    -0.03300
Br789      Br  0.34028539  0.66920219  0.98919404    -0.01800
Br790      Br  0.41659962  0.71801690  0.98105328    -0.01900
Br791      Br  0.42951763  0.53927917  0.51891996    -0.01900
Br792      Br  0.50876813  0.57950850  0.50358235    -0.01900
C793        C  0.55061217  0.75148444  0.10550384    -0.03000
C794        C  0.54510270  0.72259623  0.08358329     0.06700
C795        C  0.51819908  0.69528005  0.08977628    -0.03100
C796        C  0.49570584  0.69730886  0.11630770    -0.03100
C797        C  0.50322194  0.72412909  0.13982366     0.06800
C798        C  0.53125247  0.75110965  0.13435820    -0.03300
Br799      Br  0.54481974  0.78635135  0.16652615    -0.01800
Br800      Br  0.58266999  0.79254388  0.09571342    -0.01900
Br801      Br  0.45365530  0.66333056  0.11863867    -0.01900
Br802      Br  0.51185781  0.65441591  0.06141599    -0.01900
C803        C  0.50226255  0.75910605  0.34142326    -0.03000
C804        C  0.47657025  0.73087939  0.33236107     0.06700
C805        C  0.46434638  0.70519069  0.35476261    -0.03100
C806        C  0.48079177  0.70475012  0.38468942    -0.03100
C807        C  0.50838652  0.73146333  0.39352820     0.06800
C808        C  0.51744807  0.75987976  0.37220063    -0.03300
Br809      Br  0.55227903  0.79840161  0.38423277    -0.01800
Br810      Br  0.51660469  0.79710253  0.31190576    -0.01900
Br811      Br  0.46604893  0.66475065  0.41206422    -0.01900
Br812      Br  0.42707587  0.66798060  0.34420682    -0.01900
C813        C  0.68010606  0.66960465  0.35600129    -0.03000
C814        C  0.70833277  0.64272290  0.36144067     0.06700
C815        C  0.72342492  0.63938777  0.39210220    -0.03100
C816        C  0.70596539  0.65701248  0.41781225    -0.03100
C817        C  0.67355639  0.67899792  0.41282088     0.06800
C818        C  0.66369493  0.68840216  0.38152402    -0.03300
Br819      Br  0.62666913  0.72656947  0.37367217    -0.01800
Br820      Br  0.66066200  0.67813272  0.31423866    -0.01900
Br821      Br  0.72499716  0.64831372  0.45967204    -0.01900
Br822      Br  0.76793490  0.61006525  0.39869232    -0.01900
C823        C  0.62484573  0.57608619  0.04268595    -0.03000
C824        C  0.62601881  0.58868069  0.01132637     0.06700
C825        C  0.64621892  0.56778008  0.98901418    -0.03100
C826        C  0.66897394  0.53802606  0.99885533    -0.03100
C827        C  0.66994730  0.52715791  0.03050980     0.06800
C828        C  0.64532078  0.54428163  0.05183286    -0.03300
Br829      Br  0.63763435  0.52302536  0.09289474    -0.01800
Br830      Br  0.59359460  0.60070421  0.07287201    -0.01900
Br831      Br  0.69642567  0.51035357  0.96814825    -0.01900
Br832      Br  0.65179742  0.57857837  0.44375918    -0.01900
O833        O  0.60390789  0.67715460  0.93034718    -0.82900
C834        C  0.56328963  0.72142581  0.55047944     0.96400
O835        O  0.59729466  0.71430756  0.54366498    -0.72100
O836        O  0.61992705  0.65243696  0.51718838    -0.75600
Al837      Al  0.62168677  0.70239078  0.50352180     1.49000
C838        C  0.61570965  0.62429235  0.50038884     0.91700
O839        O  0.52185967  0.64912673  0.97937363    -0.81900
O840        O  0.53475098  0.74957213  0.94336508    -0.75400
Al841      Al  0.56329717  0.66476640  0.95611631     1.90100
O842        O  0.49506169  0.70333067  0.98443690    -0.74500
O843        O  0.57265367  0.77876736  0.99564037    -0.74300
O844        O  0.53931204  0.72779967  0.52941563    -0.80000
O845        O  0.62755510  0.75200469  0.99419342    -0.78200
O846        O  0.57261353  0.70195467  0.98258241    -1.14300
O847        O  0.64642403  0.68866764  0.96682298    -0.73500
C848        C  0.63782119  0.68206846  0.93818273     0.97200
C849        C  0.49321427  0.66805714  0.98584616     0.93600
Al850      Al  0.53767431  0.73761791  0.98757063     1.55600
O851        O  0.59183471  0.62716236  0.97609461    -0.78200
C852        C  0.60799537  0.78012686  0.99988044     0.97700
C853        C  0.52484092  0.72500328  0.92370175     0.92600
O854        O  0.53237208  0.69154182  0.92877354    -0.83500
O855        O  0.71009167  0.58232880  0.84588224    -0.82900
C856        C  0.75470174  0.53329325  0.72574339     0.96400
O857        O  0.75022769  0.56720461  0.73313016    -0.72100
O858        O  0.68498446  0.58635404  0.75598108    -0.75600
Al859      Al  0.73455216  0.59120450  0.77202096     1.49000
C860        C  0.65619358  0.58664727  0.77257355     0.91700
O861        O  0.67655465  0.50175377  0.79610449    -0.81900
O862        O  0.77957504  0.51176422  0.83327056    -0.75400
Al863      Al  0.69469612  0.54259395  0.82026007     1.90100
O864        O  0.73101101  0.47363061  0.79351531    -0.74500
O865        O  0.80878286  0.54603011  0.78037647    -0.74300
O866        O  0.75590855  0.50887578  0.74658445    -0.80000
O867        O  0.78450732  0.60184362  0.78330417    -0.78200
O868        O  0.73246252  0.54950832  0.79401343    -1.14300
O869        O  0.71888718  0.62294654  0.80793000    -0.73500
C870        C  0.71286953  0.61561606  0.83686891     0.97200
C871        C  0.69573439  0.47325610  0.78936126     0.93600
Al872      Al  0.76627134  0.51348494  0.78916075     1.55600
O873        O  0.65822790  0.57377357  0.79991295    -0.78200
C874        C  0.81223215  0.58098550  0.77854159     0.97700
C875        C  0.75478615  0.50254829  0.85302671     0.92600
O876        O  0.72087029  0.51066799  0.84797549    -0.83500
O877        O  0.53308336  0.27797791  0.67891808    -0.82900
C878        C  0.56343904  0.24067245  0.79881436     0.96400
O879        O  0.53797552  0.23512048  0.77889312    -0.72100
O880        O  0.49985395  0.26470184  0.73422873    -0.75600
Al881      Al  0.54002578  0.22900626  0.73570961     1.49000
C882        C  0.49999585  0.29939365  0.73902563     0.91700
O883        O  0.60034326  0.33744158  0.72454666    -0.81900
O884        O  0.64897582  0.27237012  0.71330688    -0.75400
Al885      Al  0.56753743  0.30191806  0.70582077     1.90100
O886        O  0.61939596  0.30931734  0.76608144    -0.74500
O887        O  0.62895468  0.20910383  0.74241221    -0.74300
O888        O  0.59670533  0.24831381  0.79058437    -0.80000
O889        O  0.57224458  0.18604526  0.74168968    -0.78200
O890        O  0.57632627  0.26295922  0.73081271    -1.14300
O891        O  0.53628188  0.21915141  0.69147729    -0.73500
C892        C  0.52618756  0.24460829  0.67265522     0.97200
C893        C  0.61730200  0.33842581  0.75033028     0.93600
Al894      Al  0.61978551  0.25987585  0.75110596     1.55600
O895        O  0.52858564  0.31848749  0.73217846    -0.78200
C896        C  0.60723134  0.18192546  0.74568062     0.97700
C897        C  0.63966888  0.28176632  0.68528284     0.92600
O898        O  0.60573511  0.28835620  0.67824927    -0.83500
O899        O  0.72112805  0.45808132  0.59837819    -0.82900
C900        C  0.76041759  0.43692830  0.97589377     0.96400
O901        O  0.75923011  0.46213547  0.99597704    -0.72100
O902        O  0.72708542  0.49429255  0.54223650    -0.75600
Al903      Al  0.76742625  0.45763453  0.53940878     1.49000
C904        C  0.69159281  0.49049441  0.53975490     0.91700
O905        O  0.66573233  0.38814552  0.54905710    -0.81900
O906        O  0.72862813  0.34457471  0.55944000    -0.75400
Al907      Al  0.69849394  0.42250898  0.57063357     1.90100
O908        O  0.69605026  0.37750474  0.50596009    -0.74500
O909        O  0.79391862  0.37135007  0.53898138    -0.74300
O910        O  0.75735501  0.40307086  0.98396825    -0.80000
O911        O  0.81348489  0.42845047  0.53221466    -0.78200
O912        O  0.73716411  0.41888484  0.54475878    -1.14300
O913        O  0.77969426  0.46116305  0.58314459    -0.73500
C914        C  0.75461205  0.46839604  0.60302262     0.97200
C915        C  0.66612721  0.37660549  0.52112511     0.93600
Al916      Al  0.74445446  0.37685788  0.52422237     1.55600
O917        O  0.67604973  0.46020362  0.54637518    -0.78200
C918        C  0.81990329  0.39373017  0.53281710     0.97700
C919        C  0.72103780  0.35161619  0.58805058     0.92600
O920        O  0.71757829  0.38481119  0.59695943    -0.83500
O921        O  0.41202120  0.28831678  0.92680104    -0.82900
C922        C  0.46777554  0.24527820  0.54685656     0.96400
O923        O  0.43378861  0.25058001  0.53892298    -0.72100
O924        O  0.40895482  0.31437099  0.51543279    -0.75600
Al925      Al  0.40849051  0.26412214  0.50044316     1.49000
C926        C  0.41154184  0.34308164  0.49881888     0.91700
O927        O  0.49354025  0.32646001  0.97369408    -0.81900
O928        O  0.48874373  0.22433168  0.94050741    -0.75400
Al929      Al  0.45211471  0.30595883  0.95142854     1.90100
O930        O  0.52363694  0.27402537  0.98120095    -0.74500
O931        O  0.45363151  0.19291009  0.99227803    -0.74300
O932        O  0.49292558  0.24384717  0.52651014    -0.80000
O933        O  0.39644022  0.21534084  0.99334272    -0.78200
O934        O  0.44702385  0.26907668  0.97907567    -1.14300
O935        O  0.37188275  0.27584711  0.96427876    -0.73500
C936        C  0.37902294  0.28089163  0.93533630     0.97200
C937        C  0.52352437  0.30926979  0.98054541     0.93600
Al938      Al  0.48495883  0.23665216  0.98457042     1.55600
O939        O  0.42100546  0.34175111  0.97030999    -0.78200
C940        C  0.41873103  0.18863904  0.99700659     0.97700
C941        C  0.49570865  0.24914310  0.92027718     0.92600
O942        O  0.48414402  0.28144445  0.92444508    -0.83500
O943        O  0.31313009  0.38370558  0.84675215    -0.82900
C944        C  0.27092291  0.43823220  0.72695863     0.96400
O945        O  0.27557806  0.40436938  0.73404263    -0.72100
O946        O  0.33899511  0.38311303  0.75796202    -0.75600
Al947      Al  0.28916245  0.37895188  0.77230738     1.49000
C948        C  0.36735603  0.38146798  0.77539714     0.91700
O949        O  0.34805634  0.46677490  0.80131845    -0.81900
O950        O  0.24495361  0.45742196  0.83463041    -0.75400
Al951      Al  0.32913385  0.42479541  0.82306437     1.90100
O952        O  0.29383945  0.49555527  0.79655565    -0.74500
O953        O  0.21516814  0.42505983  0.78075407    -0.74300
O954        O  0.26786577  0.46238408  0.74791336    -0.80000
O955        O  0.23878984  0.36883984  0.78142941    -0.78200
O956        O  0.29155868  0.41980554  0.79546985    -1.14300
O957        O  0.30308419  0.34542741  0.80728912    -0.73500
C958        C  0.30913534  0.35105120  0.83645901     0.97200
C959        C  0.32926956  0.49581446  0.79496353     0.93600
Al960      Al  0.25808633  0.45658961  0.79069663     1.55600
O961        O  0.36553068  0.39432122  0.80266564    -0.78200
C962        C  0.21141513  0.39036700  0.77710914     0.97700
C963        C  0.26963387  0.46498248  0.85539289     0.92600
O964        O  0.30317347  0.45555224  0.85122768    -0.83500
O965        O  0.48204419  0.68604940  0.67743091    -0.82900
C966        C  0.46587055  0.72590320  0.79809640     0.96400
O967        O  0.49017863  0.72711029  0.77701705    -0.72100
O968        O  0.52144684  0.69697337  0.72912732    -0.75600
Al969      Al  0.48320804  0.73467833  0.73391074     1.49000
C970        C  0.51974290  0.66211878  0.73362653     0.91700
O971        O  0.41600322  0.63080754  0.72726488    -0.81900
O972        O  0.36965112  0.69406557  0.71889004    -0.75400
Al973      Al  0.44875974  0.66400146  0.70607486     1.90100
O974        O  0.40574702  0.65958436  0.77066074    -0.74500
O975        O  0.39568815  0.75796313  0.74208062    -0.74300
O976        O  0.43119955  0.72234680  0.79129758    -0.80000
O977        O  0.45333223  0.77892673  0.74256930    -0.78200
O978        O  0.44494912  0.70282054  0.73136504    -1.14300
O979        O  0.48142337  0.74506010  0.68919738    -0.73500
C980        C  0.48798095  0.71920844  0.66975045     0.97200
C981        C  0.40429534  0.63041315  0.75485495     0.93600
Al982      Al  0.40390185  0.70824981  0.75381150     1.55600
O983        O  0.48918248  0.64475710  0.72997218    -0.78200
C984        C  0.41841958  0.78425856  0.74580203     0.97700
C985        C  0.37586350  0.68641390  0.69010476     0.92600
O986        O  0.40887987  0.68085219  0.68070718    -0.83500
O987        O  0.30866565  0.50960885  0.59745621    -0.82900
C988        C  0.25514720  0.53432497  0.97702090     0.96400
O989        O  0.25473388  0.50895232  0.99709321    -0.72100
O990        O  0.29777321  0.47424790  0.53969602    -0.75600
Al991      Al  0.25782778  0.51161661  0.53988810     1.49000
C992        C  0.33336928  0.47661509  0.53750647     0.91700
O993        O  0.36282266  0.57864830  0.54766073    -0.81900
O994        O  0.29659194  0.62372477  0.56110852    -0.75400
Al995      Al  0.33023374  0.54473126  0.56909330     1.90100
O996        O  0.33031138  0.59529806  0.50672695    -0.74500
O997        O  0.23338192  0.59728503  0.53829585    -0.74300
O998        O  0.26001285  0.56788399  0.98547706    -0.80000
O999        O  0.21167756  0.54062411  0.53798756    -0.78200
O1000       O  0.28982389  0.54986825  0.54428245    -1.14300
O1001       O  0.24957593  0.50679142  0.58361024    -0.73500
C1002       C  0.27535400  0.49995747  0.60309482     0.97200
C1003       C  0.36104025  0.59399611  0.52115747     0.93600
Al1004     Al  0.28210574  0.59284025  0.52452166     1.55600
O1005       O  0.35008704  0.50646397  0.54406398    -0.78200
C1006       C  0.20624101  0.57520043  0.53956431     0.97700
C1007       C  0.30574170  0.61528906  0.58926197     0.92600
O1008       O  0.31420943  0.58225056  0.59617836    -0.83500
O1009       O  0.10709100  0.17437150  0.68317796    -0.82900
C1010       C  0.06206233  0.23041454  0.80101746     0.96400
O1011       O  0.09599607  0.22866676  0.79206659    -0.72100
O1012       O  0.11874099  0.16343140  0.77396429    -0.75600
Al1013     Al  0.11848741  0.21004517  0.75354755     1.49000
C1014       C  0.11682631  0.13268561  0.76043805     0.91700
O1015       O  0.02780774  0.14580035  0.73766411    -0.81900
O1016       O  0.03280991  0.24277920  0.69333714    -0.75400
Al1017     Al  0.06800762  0.16190735  0.71132765     1.90100
O1018       O  0.99761524  0.19889714  0.73660984    -0.74500
O1019       O  0.06791576  0.27921166  0.74268806    -0.74300
O1020       O  0.03569603  0.22860083  0.78133174    -0.80000
O1021       O  0.12484426  0.25781911  0.73682276    -0.78200
O1022       O  0.07483825  0.20258602  0.73405967    -1.14300
O1023       O  0.14903699  0.19215732  0.71831414    -0.73500
C1024       C  0.14076618  0.18162841  0.69054184     0.97200
C1025       C  0.99818684  0.16451513  0.74226569     0.93600
Al1026     Al  0.03703254  0.23490318  0.73787891     1.55600
O1027       O  0.10079227  0.13022730  0.73419780    -0.78200
C1028       C  0.10295531  0.28458225  0.74131984     0.97700
C1029       C  0.02500768  0.21595310  0.67505008     0.92600
O1030       O  0.03440226  0.18343129  0.68234544    -0.83500
O1031       O  0.21712991  0.07830705  0.60119398    -0.82900
C1032       C  0.26266027  0.03378117  0.97925253     0.96400
O1033       O  0.25761031  0.06703080  0.98836718    -0.72100
O1034       O  0.18468197  0.08360893  0.51250135    -0.75600
Al1035     Al  0.23536975  0.08891442  0.52641084     1.49000
C1036       C  0.15700461  0.08123629  0.53037222     0.91700
O1037       O  0.17976974  0.99908841  0.55283214    -0.81900
O1038       O  0.28503005  0.00692755  0.58371951    -0.75400
Al1039     Al  0.19994100  0.03848824  0.57595420     1.90100
O1040       O  0.23354520  0.97050967  0.54396952    -0.74500
O1041       O  0.31164935  0.04487006  0.53257715    -0.74300
O1042       O  0.26174035  0.00775393  0.99855912    -0.80000
O1043       O  0.28607514  0.10028087  0.53554022    -0.78200
O1044       O  0.23557120  0.04633941  0.54758191    -1.14300
O1045       O  0.22143375  0.11937985  0.56314030    -0.73500
C1046       C  0.21805729  0.11185209  0.59226274     0.97200
C1047       C  0.19775766  0.97089028  0.54417446     0.93600
Al1048     Al  0.26974285  0.01094676  0.54049469     1.55600
O1049       O  0.16156727  0.06871363  0.55763194    -0.78200
C1050       C  0.31422691  0.07997911  0.53051433     0.97700
C1051       C  0.26216020  0.99694542  0.60453410     0.92600
O1052       O  0.22788380  0.00499341  0.60182873    -0.83500
O1053       O  0.03333034  0.78013945  0.92668858    -0.82900
C1054       C  0.06206772  0.74477363  0.55012905     0.96400
O1055       O  0.03768491  0.73954105  0.52922625    -0.72100
O1056       O  0.00129614  0.76695220  0.48228772    -0.75600
Al1057     Al  0.03780217  0.73585330  0.98662245     1.49000
C1058       C  0.99575089  0.80618497  0.98298315     0.91700
O1059       O  0.09578505  0.84380702  0.97307904    -0.81900
O1060       O  0.14747999  0.78194929  0.96695688    -0.75400
Al1061     Al  0.06572144  0.80665315  0.95381319     1.90100
O1062       O  0.12138887  0.81167889  0.51887349    -0.74500
O1063       O  0.13062809  0.71278739  0.49407100    -0.74300
O1064       O  0.09619430  0.75070009  0.54329042    -0.80000
O1065       O  0.07145423  0.69452744  0.99554180    -0.78200
O1066       O  0.07353756  0.77013154  0.98138110    -1.14300
O1067       O  0.03579691  0.72258925  0.94289108    -0.73500
C1068       C  0.02574251  0.74645307  0.92262523     0.97200
C1069       C  0.11726240  0.84075971  0.50327743     0.93600
Al1070     Al  0.12142828  0.76268569  0.50393959     1.55600
O1071       O  0.02466917  0.82437974  0.97677423    -0.78200
C1072       C  0.10671600  0.69208085  0.99933030     0.97700
C1073       C  0.14001182  0.78736240  0.93789711     0.92600
O1074       O  0.10633170  0.79159866  0.92884740    -0.83500
O1075       O  0.22341162  0.96041733  0.85240659    -0.82900
C1076       C  0.25594377  0.93779805  0.72814692     0.96400
O1077       O  0.25710665  0.96239250  0.74886595    -0.72100
O1078       O  0.23249268  0.99833715  0.79594910    -0.75600
Al1079     Al  0.26732393  0.95862273  0.79191408     1.49000
C1080       C  0.19712857  0.99926091  0.79456420     0.91700
O1081       O  0.15933093  0.90057036  0.80446506    -0.81900
O1082       O  0.22164407  0.84890197  0.81116057    -0.75400
Al1083     Al  0.19670821  0.92947268  0.82472183     1.90100
O1084       O  0.18430855  0.88356494  0.76062332    -0.74500
O1085       O  0.28568104  0.87061436  0.78563348    -0.74300
O1086       O  0.24979067  0.90432829  0.73599345    -0.80000
O1087       O  0.30968255  0.92655363  0.78410317    -0.78200
O1088       O  0.23346722  0.92259070  0.79734238    -1.14300
O1089       O  0.28124141  0.96131847  0.83585168    -0.73500
C1090       C  0.25708852  0.96948919  0.85639698     0.97200
C1091       C  0.15593055  0.88628817  0.77782354     0.93600
Al1092     Al  0.23520367  0.88054233  0.77531254     1.55600
O1093       O  0.17820897  0.97099189  0.80212641    -0.78200
C1094       C  0.31342495  0.89178284  0.78237742     0.97700
C1095       C  0.21646027  0.85551284  0.84018214     0.92600
O1096       O  0.21247784  0.88854802  0.84957934    -0.83500
O1097       O  0.91043782  0.79299046  0.68165311    -0.82900
C1098       C  0.96422111  0.74247182  0.79847444     0.96400
O1099       O  0.92972335  0.74334210  0.79046064    -0.72100
O1100       O  0.90311198  0.80670444  0.77206389    -0.75600
Al1101     Al  0.90390036  0.75979830  0.75271151     1.49000
C1102       C  0.90290803  0.83727727  0.75816047     0.91700
O1103       O  0.98874250  0.82828168  0.73344851    -0.81900
O1104       O  0.98534060  0.72904634  0.69063997    -0.75400
Al1105     Al  0.94947359  0.80886421  0.70837886     1.90100
O1106       O  0.02301050  0.77740352  0.73223094    -0.74500
O1107       O  0.95672586  0.69226625  0.74240907    -0.74300
O1108       O  0.98958495  0.74491606  0.77835943    -0.80000
O1109       O  0.89863782  0.71108351  0.73728204    -0.78200
O1110       O  0.94591559  0.76865074  0.73218584    -1.14300
O1111       O  0.87052500  0.77586395  0.71809539    -0.73500
C1112       C  0.87732467  0.78576929  0.69000253     0.97200
C1113       C  0.01978042  0.81202429  0.73747302     0.93600
Al1114     Al  0.98528292  0.73816541  0.73525809     1.55600
O1115       O  0.91582904  0.83978966  0.73095857    -0.78200
C1116       C  0.92179883  0.68545098  0.74271230     0.97700
C1117       C  0.99129985  0.75529200  0.67146371     0.92600
O1118       O  0.98408327  0.78820884  0.67944006    -0.83500
O1119       O  0.81647234  0.88938165  0.59655814    -0.82900
C1120       C  0.75737706  0.93459964  0.98153628     0.96400
O1121       O  0.76242235  0.90109440  0.98987321    -0.72100
O1122       O  0.83261998  0.87550657  0.50779513    -0.75600
Al1123     Al  0.78403961  0.87804057  0.52461473     1.49000
C1124       C  0.86311614  0.87682073  0.52218615     0.91700
O1125       O  0.84958201  0.96429359  0.54158700    -0.81900
O1126       O  0.75283252  0.96314284  0.58758132    -0.75400
Al1127     Al  0.83185676  0.92661707  0.56839886     1.90100
O1128       O  0.79632933  0.99600007  0.53969105    -0.74500
O1129       O  0.71158295  0.92803379  0.54296669    -0.74300
O1130       O  0.75633949  0.95997123  0.00177667    -0.80000
O1131       O  0.73447927  0.87251709  0.53581402    -0.78200
O1132       O  0.79053335  0.92070124  0.54492414    -1.14300
O1133       O  0.79695073  0.84804557  0.56172892    -0.73500
C1134       C  0.80692678  0.85652418  0.58967323     0.97200
C1135       C  0.83171537  0.99391414  0.53560875     0.93600
Al1136     Al  0.75720934  0.95811545  0.54237252     1.55600
O1137       O  0.86460686  0.89235505  0.54842618    -0.78200
C1138       C  0.70693010  0.89340734  0.54038935     0.97700
C1139       C  0.78051805  0.97041748  0.60535421     0.92600
O1140       O  0.81296452  0.96278991  0.59626135    -0.83500
O1141       O  0.99349586  0.18824792  0.92785966    -0.82900
C1142       C  0.96192230  0.21927336  0.55013472     0.96400
O1143       O  0.98779105  0.22239811  0.53073697    -0.72100
O1144       O  0.02695474  0.19589428  0.48538709    -0.75600
Al1145     Al  0.98835549  0.23141552  0.98847031     1.49000
C1146       C  0.02691494  0.15904717  0.98718699     0.91700
O1147       O  0.92575276  0.12690272  0.97205067    -0.81900
O1148       O  0.87730871  0.19181846  0.96252952    -0.75400
Al1149     Al  0.95836207  0.16248250  0.95369910     1.90100
O1150       O  0.90782370  0.15197614  0.51236934    -0.74500
O1151       O  0.89799829  0.25400832  0.49257075    -0.74300
O1152       O  0.92839347  0.21377884  0.54100967    -0.80000
O1153       O  0.95704939  0.27522100  0.99619537    -0.78200
O1154       O  0.95087971  0.19960774  0.98073735    -1.14300
O1155       O  0.99313233  0.24539863  0.94539089    -0.73500
C1156       C  0.00206316  0.22200130  0.92468672     0.97200
C1157       C  0.91010067  0.12483484  0.49399624     0.93600
Al1158     Al  0.90642275  0.20298747  0.50025236     1.55600
O1159       O  0.99753359  0.14203543  0.97885304    -0.78200
C1160       C  0.92187783  0.28067855  0.99669755     0.97700
C1161       C  0.88524009  0.18469017  0.93407923     0.92600
O1162       O  0.91908145  0.17891425  0.92649347    -0.83500
O1163       O  0.79561280  0.02336989  0.85840259    -0.82900
C1164       C  0.77229372  0.04008192  0.72749466     0.96400
O1165       O  0.75412577  0.01871699  0.74537734    -0.72100
O1166       O  0.79438883  0.97496869  0.78110620    -0.75600
Al1167     Al  0.75568374  0.00951875  0.78979174     1.49000
C1168       C  0.82559899  0.96958228  0.79442575     0.91700
O1169       O  0.86344271  0.05688792  0.79636715    -0.81900
O1170       O  0.77663221  0.11842296  0.81758404    -0.75400
Al1171     Al  0.82605728  0.04104389  0.82540994     1.90100
O1172       O  0.83330140  0.10423859  0.77753541    -0.74500
O1173       O  0.72971312  0.08908969  0.77390377    -0.74300
O1174       O  0.78852277  0.06872485  0.73811568    -0.80000
O1175       O  0.71056261  0.03798429  0.79617702    -0.78200
O1176       O  0.78764240  0.04704463  0.79830052    -1.14300
O1177       O  0.75239157  0.99195138  0.83263776    -0.73500
C1178       C  0.76963633  0.99965440  0.85791250     0.97200
C1179       C  0.86362774  0.08729626  0.78191298     0.93600
Al1180     Al  0.78219928  0.09091861  0.77863620     1.55600
O1181       O  0.83865828  0.99256576  0.81358336    -0.78200
C1182       C  0.70354321  0.06859230  0.78292177     0.97700
C1183       C  0.80041644  0.11667128  0.84003399     0.92600
O1184       O  0.82177594  0.08894469  0.84314240    -0.83500
C1185       C  0.79778274  0.14568419  0.89327217    -0.03000
C1186       C  0.80834337  0.14807756  0.86163925     0.06700
C1187       C  0.83834013  0.17150295  0.85378301    -0.03100
C1188       C  0.86243176  0.18569727  0.87732929    -0.03100
C1189       C  0.85479686  0.17944786  0.90952588     0.06800
C1190       C  0.81985676  0.16268499  0.91708927    -0.03300
Br1191     Br  0.80285094  0.15965426  0.95984841    -0.01800
Br1192     Br  0.75440173  0.11657573  0.90380083    -0.01900
Br1193     Br  0.90668508  0.21199888  0.86439045    -0.01900
Br1194     Br  0.84821660  0.18129847  0.81018705    -0.01900
C1195       C  0.90464661  0.07074966  0.53055513    -0.03000
C1196       C  0.89361424  0.08865590  0.50265511     0.06700
C1197       C  0.86857795  0.06963533  0.98672117    -0.03100
C1198       C  0.84341889  0.04347455  0.49547743    -0.03100
C1199       C  0.85283732  0.02669715  0.52440262     0.06800
C1200       C  0.88423087  0.03998434  0.54158889    -0.03300
Br1201     Br  0.89803581  0.01796399  0.58131536    -0.01800
Br1202     Br  0.95078376  0.08541331  0.55102616    -0.01900
Br1203     Br  0.81714039  0.01157306  0.96844681    -0.01900
Br1204     Br  0.86664202  0.08165878  0.94257981    -0.01900
C1205       C  0.73223894  0.98885203  0.90692327    -0.03000
C1206       C  0.76191349  0.97869454  0.88724997     0.06700
C1207       C  0.78711497  0.95065863  0.89723883    -0.03100
C1208       C  0.78284638  0.93308523  0.92655198    -0.03100
C1209       C  0.75504064  0.94543056  0.94761585     0.06800
C1210       C  0.72954208  0.97340457  0.93732010    -0.03300
Br1211     Br  0.69197847  0.99271203  0.96510167    -0.01800
Br1212     Br  0.69665478  0.02565985  0.89274026    -0.01900
Br1213     Br  0.81849244  0.89507414  0.93848065    -0.01900
Br1214     Br  0.82993898  0.93816016  0.87206612    -0.01900
C1215       C  0.75138922  0.01845795  0.64172816    -0.03000
C1216       C  0.77702648  0.98888559  0.63666964     0.06700
C1217       C  0.80385504  0.98059912  0.66065984    -0.03100
C1218       C  0.80477129  0.00129028  0.68849706    -0.03100
C1219       C  0.77733796  0.02811484  0.69452324     0.06800
C1220       C  0.75203755  0.03825832  0.67045168    -0.03300
Br1221     Br  0.72225479  0.08239339  0.67553439    -0.01800
Br1222     Br  0.71607560  0.03310023  0.60944408    -0.01900
Br1223     Br  0.84610021  0.99571135  0.71747247    -0.01900
Br1224     Br  0.83878782  0.93953056  0.65762904    -0.01900
C1225       C  0.85166833  0.77859304  0.63570402    -0.03000
C1226       C  0.84699487  0.79237485  0.66634149     0.06700
C1227       C  0.81932597  0.81977412  0.67149258    -0.03100
C1228       C  0.80096262  0.83690886  0.64578280    -0.03100
C1229       C  0.81128332  0.82794300  0.61481476     0.06800
C1230       C  0.83407777  0.79639484  0.60997074    -0.03300
Br1231     Br  0.84473390  0.77952998  0.56829519    -0.01800
Br1232     Br  0.88460548  0.73679159  0.62902829    -0.01900
Br1233     Br  0.76257837  0.87383093  0.65284989    -0.01900
Br1234     Br  0.80973660  0.83755191  0.71312059    -0.01900
C1235       C  0.84982572  0.86795674  0.78621164    -0.03000
C1236       C  0.88587373  0.87017788  0.77275381     0.06700
C1237       C  0.90395472  0.90485253  0.77046113    -0.03100
C1238       C  0.88506660  0.93730685  0.77937358    -0.03100
C1239       C  0.84698639  0.93545890  0.78822763     0.06800
C1240       C  0.82977373  0.90064443  0.79250380    -0.03300
Br1241     Br  0.77897302  0.89741904  0.80793626    -0.01800
Br1242     Br  0.82692544  0.82068919  0.79574410    -0.01900
Br1243     Br  0.91179050  0.98393748  0.77863245    -0.01900
Br1244     Br  0.95515202  0.90810545  0.75599057    -0.01900
C1245       C  0.09571903  0.85247596  0.78994384    -0.03000
C1246       C  0.11883142  0.87085745  0.76784883     0.06700
C1247       C  0.10624686  0.87355765  0.73632696    -0.03100
C1248       C  0.07313744  0.85521530  0.72656538    -0.03100
C1249       C  0.05266161  0.83379722  0.74802720     0.06800
C1250       C  0.06281863  0.83429061  0.77992353    -0.03300
Br1251     Br  0.03040669  0.81185452  0.81038663    -0.01800
Br1252     Br  0.10820915  0.85076807  0.83421564    -0.01900
Br1253     Br  0.05484359  0.86034414  0.68403982    -0.01900
Br1254     Br  0.13251263  0.90428315  0.70673660    -0.01900
C1255       C  0.92518654  0.80582833  0.99285367    -0.03000
C1256       C  0.95966447  0.82563956  0.99070578     0.06700
C1257       C  0.96531961  0.86018335  0.50190742    -0.03100
C1258       C  0.93187506  0.87807360  0.51075947    -0.03100
C1259       C  0.89728440  0.85943338  0.50906348     0.06800
C1260       C  0.89149905  0.82475969  0.99894997    -0.03300
Br1261     Br  0.84409950  0.79868981  0.99555262    -0.01800
Br1262     Br  0.92160439  0.75221226  0.98872056    -0.01900
Br1263     Br  0.93332300  0.92979095  0.52317492    -0.01900
Br1264     Br  0.01111988  0.88931499  0.50422228    -0.01900
C1265       C  0.18454159  0.79659793  0.85739863    -0.03000
C1266       C  0.21048242  0.82509359  0.86368005     0.06700
C1267       C  0.22269664  0.82981310  0.89499397    -0.03100
C1268       C  0.20286134  0.81339212  0.92005027    -0.03100
C1269       C  0.17012629  0.79230409  0.91368517     0.06800
C1270       C  0.16329900  0.78145996  0.88213584    -0.03300
Br1271     Br  0.12379989  0.74707026  0.87206389    -0.01800
Br1272     Br  0.17752936  0.77875758  0.81510111    -0.01900
Br1273     Br  0.21942128  0.82263284  0.96253910    -0.01900
Br1274     Br  0.26786282  0.85745878  0.90294837    -0.01900
C1275       C  0.05029501  0.71724316  0.60363052    -0.03000
C1276       C  0.04818722  0.74733612  0.58255244     0.06700
C1277       C  0.02482357  0.77749464  0.58955649    -0.03100
C1278       C  0.00285520  0.77737811  0.61656756    -0.03100
C1279       C  0.00830796  0.74963175  0.63989041     0.06800
C1280       C  0.03256721  0.71940594  0.63313373    -0.03300
Br1281     Br  0.04274057  0.68100851  0.66363051    -0.01800
Br1282     Br  0.07408236  0.67176614  0.59097623    -0.01900
Br1283     Br  0.96272627  0.81373351  0.61869084    -0.01900
Br1284     Br  0.02183203  0.81897789  0.56120353    -0.01900
C1285       C  0.00534467  0.71372309  0.84046234    -0.03000
C1286       C  0.97568678  0.73822762  0.83177487     0.06700
C1287       C  0.95861282  0.76016759  0.85484398    -0.03100
C1288       C  0.97273676  0.75964500  0.88561795    -0.03100
C1289       C  0.00406533  0.73723518  0.89387365     0.06800
C1290       C  0.01855579  0.71244588  0.87170576    -0.03300
Br1291     Br  0.05731747  0.67773326  0.88384237    -0.01800
Br1292     Br  0.02894251  0.68220263  0.80978095    -0.01900
Br1293     Br  0.94895512  0.79101127  0.91596982    -0.01900
Br1294     Br  0.91900066  0.79490020  0.84404801    -0.01900
C1295       C  0.15642478  0.91679695  0.55595554    -0.03000
C1296       C  0.17626853  0.93817967  0.53401004     0.06700
C1297       C  0.17281259  0.93023258  0.50187965    -0.03100
C1298       C  0.14981776  0.90275915  0.98794431    -0.03100
C1299       C  0.13501244  0.87569219  0.51390436     0.06800
C1300       C  0.13718737  0.88470694  0.54616608    -0.03300
Br1301     Br  0.11333943  0.85417248  0.57740795    -0.01800
Br1302     Br  0.15372797  0.93250147  0.59917233    -0.01900
Br1303     Br  0.14885161  0.89216484  0.94341901    -0.01900
Br1304     Br  0.19856086  0.96213937  0.96865712    -0.01900
C1305       C  0.10984075  0.09156703  0.98963468    -0.03000
C1306       C  0.12003725  0.09645037  0.52032267     0.06700
C1307       C  0.10059589  0.12071298  0.54030898    -0.03100
C1308       C  0.07154910  0.14309808  0.52830276    -0.03100
C1309       C  0.06016196  0.13751332  0.99844953     0.06800
C1310       C  0.07650941  0.10962262  0.97961027    -0.03300
Br1311     Br  0.05334954  0.09560224  0.94029037    -0.01800
Br1312     Br  0.13188934  0.05345794  0.96398576    -0.01900
Br1313     Br  0.05114632  0.18002740  0.55547986    -0.01900
Br1314     Br  0.11186941  0.12264318  0.58476559    -0.01900
C1315       C  0.29228538  0.97821190  0.90724122    -0.03000
C1316       C  0.26589706  0.99120662  0.88513527     0.06700
C1317       C  0.24284772  0.02196421  0.89302905    -0.03100
C1318       C  0.24675654  0.03983587  0.92211061    -0.03100
C1319       C  0.26887663  0.02348048  0.94582458     0.06800
C1320       C  0.29231434  0.99264048  0.93800521    -0.03300
Br1321     Br  0.32353968  0.96788493  0.96911759    -0.01800
Br1322     Br  0.32554051  0.93792839  0.89647469    -0.01900
Br1323     Br  0.21877006  0.08489308  0.92975245    -0.01900
Br1324     Br  0.20184370  0.03763938  0.86637340    -0.01900
C1325       C  0.29132292  0.99376718  0.65751965    -0.03000
C1326       C  0.27363852  0.97555563  0.63271229     0.06700
C1327       C  0.25767549  0.94048752  0.63798939    -0.03100
C1328       C  0.25209388  0.92735426  0.66880406    -0.03100
C1329       C  0.26380631  0.94920693  0.69482548     0.06800
C1330       C  0.28558489  0.98181887  0.68856782    -0.03300
Br1331     Br  0.30903112  0.01126828  0.72121290    -0.01800
Br1332     Br  0.32602450  0.03298173  0.64787024    -0.01900
Br1333     Br  0.22696829  0.88033543  0.67400931    -0.01900
Br1334     Br  0.24782481  0.90914707  0.60232439    -0.01900
C1335       C  0.96510039  0.12205742  0.77961272    -0.03000
C1336       C  0.96355018  0.14613630  0.75357205     0.06700
C1337       C  0.92855670  0.15291058  0.73880220    -0.03100
C1338       C  0.89770109  0.13008380  0.74536984    -0.03100
C1339       C  0.89905963  0.10504355  0.77106931     0.06800
C1340       C  0.93289487  0.10208540  0.78876961    -0.03300
Br1341     Br  0.93528479  0.07339082  0.82701854    -0.01800
Br1342     Br  0.00946445  0.12193029  0.80608420    -0.01900
Br1343     Br  0.85463890  0.13272938  0.71730570    -0.01900
Br1344     Br  0.92031867  0.19628166  0.71276424    -0.01900
C1345       C  0.07196572  0.21636708  0.85875746    -0.03000
C1346       C  0.05190295  0.23508354  0.83468061     0.06700
C1347       C  0.01969638  0.25636701  0.84282565    -0.03100
C1348       C  0.00614551  0.25590294  0.87371106    -0.03100
C1349       C  0.02295194  0.23273815  0.89623323     0.06800
C1350       C  0.05719536  0.21492869  0.88928343    -0.03300
Br1351     Br  0.08439445  0.18920583  0.92203933    -0.01800
Br1352     Br  0.11825362  0.19037902  0.85032490    -0.01900
Br1353     Br  0.96405839  0.28648351  0.88515529    -0.01900
Br1354     Br  0.99305108  0.28646583  0.81222712    -0.01900
C1355       C  0.96008517  0.19614798  0.60543749    -0.03000
C1356       C  0.97239332  0.22269325  0.58377452     0.06700
C1357       C  0.99888706  0.24997272  0.59354954    -0.03100
C1358       C  0.01287035  0.25019662  0.62453589    -0.03100
C1359       C  0.00422306  0.22071642  0.64491273     0.06800
C1360       C  0.97812258  0.19310323  0.63476496    -0.03300
Br1361     Br  0.96858664  0.14832682  0.65860428    -0.01800
Br1362     Br  0.91996351  0.16228628  0.59465480    -0.01900
Br1363     Br  0.04667914  0.28926854  0.63762213    -0.01900
Br1364     Br  0.01743076  0.28711431  0.56468569    -0.01900
C1365       C  0.22087430  0.13412537  0.64807413    -0.03000
C1366       C  0.21083583  0.14129464  0.61657271     0.06700
C1367       C  0.18684460  0.17188679  0.61057385    -0.03100
C1368       C  0.16627497  0.18799013  0.63548258    -0.03100
C1369       C  0.17043498  0.17448264  0.66650488     0.06800
C1370       C  0.20024118  0.14967132  0.67288180    -0.03300
Br1371     Br  0.21125625  0.13392008  0.71502031    -0.01800
Br1372     Br  0.26436158  0.10436622  0.65712001    -0.01900
Br1373     Br  0.13251501  0.22872178  0.62733956    -0.01900
Br1374     Br  0.18168038  0.19170366  0.56871943    -0.01900
C1375       C  0.11976063  0.06435365  0.76791243    -0.03000
C1376       C  0.13567975  0.09951319  0.77358831     0.06700
C1377       C  0.17257532  0.10198679  0.78605071    -0.03100
C1378       C  0.19402766  0.06955945  0.79081214    -0.03100
C1379       C  0.17764024  0.03415617  0.78535326     0.06800
C1380       C  0.14130186  0.03218106  0.77199679    -0.03300
Br1381     Br  0.12297316  0.98661295  0.75368959    -0.01800
Br1382     Br  0.06746684  0.05949539  0.75599192    -0.01900
Br1383     Br  0.24663690  0.07539789  0.80224622    -0.01900
Br1384     Br  0.19504987  0.14953975  0.79609979    -0.01900
C1385       C  0.14100605  0.58588558  0.51823089    -0.03000
C1386       C  0.16851338  0.59268274  0.54141952     0.06700
C1387       C  0.16794316  0.62686369  0.55679068    -0.03100
C1388       C  0.15007166  0.65731069  0.54269101    -0.03100
C1389       C  0.12694402  0.65248896  0.51545171     0.06800
C1390       C  0.12142666  0.62353628  0.99670841    -0.03300
Br1391     Br  0.09307706  0.62062482  0.95801194    -0.01800
Br1392     Br  0.14484422  0.54909072  0.98219728    -0.01900
Br1393     Br  0.16168751  0.70477793  0.56096587    -0.01900
Br1394     Br  0.19737116  0.63239178  0.59498285    -0.01900
C1395       C  0.39441426  0.82582826  0.78848432    -0.03000
C1396       C  0.40294404  0.82048645  0.75637881     0.06700
C1397       C  0.38871820  0.84596809  0.73435172    -0.03100
C1398       C  0.36308402  0.87363355  0.74382789    -0.03100
C1399       C  0.35001715  0.87455977  0.77503258     0.06800
C1400       C  0.36726784  0.85192975  0.79756357    -0.03300
Br1401     Br  0.35178989  0.85570575  0.84074962    -0.01800
Br1402     Br  0.41854561  0.79775809  0.82085686    -0.01900
Br1403     Br  0.34481754  0.90873890  0.71358160    -0.01900
Br1404     Br  0.40280519  0.84128824  0.69103307    -0.01900
C1405       C  0.34694226  0.69483286  0.63664984    -0.03000
C1406       C  0.34510940  0.67908835  0.66695813     0.06700
C1407       C  0.32069281  0.64894499  0.67181367    -0.03100
C1408       C  0.30234579  0.63198611  0.64617025    -0.03100
C1409       C  0.30980467  0.64337072  0.61508507     0.06800
C1410       C  0.32945703  0.67705826  0.61072034    -0.03300
Br1411     Br  0.33519359  0.69768043  0.56944892    -0.01800
Br1412     Br  0.37580041  0.73954731  0.63069662    -0.01900
Br1413     Br  0.26851208  0.59135597  0.65377177    -0.01900
Br1414     Br  0.31665645  0.62663838  0.71265359    -0.01900
C1415       C  0.12210674  0.33446982  0.77921722    -0.03000
C1416       C  0.12011231  0.32130470  0.74798066     0.06700
C1417       C  0.14314597  0.33771361  0.72539012    -0.03100
C1418       C  0.16960607  0.36484888  0.73434288    -0.03100
C1419       C  0.17538022  0.37370358  0.76642295     0.06800
C1420       C  0.15062906  0.35928084  0.78859458    -0.03300
Br1421     Br  0.15847414  0.37081726  0.83228623    -0.01800
Br1422     Br  0.08807233  0.31701233  0.81021241    -0.01900
Br1423     Br  0.19825184  0.38818877  0.70213896    -0.01900
Br1424     Br  0.14002995  0.32081777  0.68246234    -0.01900
C1425       C  0.38088073  0.52856806  0.76660185    -0.03000
C1426       C  0.34867192  0.53056667  0.78559026     0.06700
C1427       C  0.33452551  0.56592602  0.79428332    -0.03100
C1428       C  0.35391474  0.59843947  0.78585125    -0.03100
C1429       C  0.38688444  0.59620491  0.76760928     0.06800
C1430       C  0.40037578  0.56097228  0.75835962    -0.03300
Br1431     Br  0.44608886  0.55612684  0.73451642    -0.01800
Br1432     Br  0.39568787  0.48209667  0.74765442    -0.01900
Br1433     Br  0.33260176  0.64596577  0.79757009    -0.01900
Br1434     Br  0.28723519  0.57139262  0.81605090    -0.01900
C1435       C  0.23966191  0.47545264  0.68401137    -0.03000
C1436       C  0.26813130  0.45017883  0.69376164     0.06700
C1437       C  0.29361007  0.43652572  0.67149859    -0.03100
C1438       C  0.29211496  0.44981588  0.64063573    -0.03100
C1439       C  0.26792236  0.47921079  0.63234515     0.06800
C1440       C  0.23951390  0.48987235  0.65324236    -0.03300
Br1441     Br  0.19968574  0.52278771  0.63963996    -0.01800
Br1442     Br  0.19981814  0.48941767  0.71214010    -0.01900
Br1443     Br  0.31969341  0.42448801  0.60859853    -0.01900
Br1444     Br  0.33285240  0.40198626  0.68306130    -0.01900
C1445       C  0.27994881  0.53498009  0.92224993    -0.03000
C1446       C  0.25236943  0.52286758  0.94333903     0.06700
C1447       C  0.22798366  0.49350971  0.93379825    -0.03100
C1448       C  0.23099897  0.47740791  0.90369947    -0.03100
C1449       C  0.26137777  0.48667437  0.88437244     0.06800
C1450       C  0.28669546  0.51483979  0.89459771    -0.03300
Br1451     Br  0.33390383  0.52386462  0.87378926    -0.01800
Br1452     Br  0.31142054  0.57713940  0.93207244    -0.01900
Br1453     Br  0.19628053  0.43908421  0.89087871    -0.01900
Br1454     Br  0.19256997  0.47177129  0.96244010    -0.01900
C1455       C  0.37565545  0.11180155  0.54211411    -0.03000
C1456       C  0.34952048  0.09851373  0.51998410     0.06700
C1457       C  0.37065150  0.09445403  0.99881582    -0.03100
C1458       C  0.39482634  0.12338179  0.98906538    -0.03100
C1459       C  0.40522306  0.15077214  0.50169867     0.06800
C1460       C  0.40302775  0.13817604  0.53317569    -0.03300
Br1461     Br  0.43443733  0.15934462  0.56508048    -0.01800
Br1462     Br  0.37169080  0.09584465  0.58514418    -0.01900
Br1463     Br  0.41328227  0.12487522  0.94674592    -0.01900
Br1464     Br  0.35614699  0.05759239  0.96895643    -0.01900
C1465       C  0.35903566  0.27317444  0.87935503    -0.03000
C1466       C  0.34912645  0.28215522  0.91040483     0.06700
C1467       C  0.31571290  0.30234670  0.91499724    -0.03100
C1468       C  0.29979505  0.32267244  0.88975811    -0.03100
C1469       C  0.31506282  0.31998345  0.85933905     0.06800
C1470       C  0.34215750  0.29205594  0.85381693    -0.03300
Br1471     Br  0.35961047  0.28196926  0.81223548    -0.01800
Br1472     Br  0.39694167  0.23576046  0.87226423    -0.01900
Br1473     Br  0.25901735  0.35656862  0.89739060    -0.01900
Br1474     Br  0.29296464  0.30396035  0.95578416    -0.01900
C1475       C  0.38596557  0.42997184  0.54545525    -0.03000
C1476       C  0.35564866  0.44397904  0.52716417     0.06700
C1477       C  0.34725695  0.42707872  0.49820884    -0.03100
C1478       C  0.36758442  0.39590490  0.48824326    -0.03100
C1479       C  0.39402769  0.37870634  0.50848195     0.06800
C1480       C  0.40366548  0.39634077  0.53695710    -0.03300
Br1481     Br  0.44264429  0.37598309  0.56345998    -0.01800
Br1482     Br  0.40444407  0.45693072  0.58158259    -0.01900
Br1483     Br  0.35948024  0.37811926  0.44607451    -0.01900
Br1484     Br  0.30950895  0.44771221  0.47071441    -0.01900
C1485       C  0.87660531  0.35717267  0.54689707    -0.03000
C1486       C  0.85668387  0.37720042  0.52400783     0.06700
C1487       C  0.86434497  0.36989575  0.49204879    -0.03100
C1488       C  0.89092377  0.34157503  0.98380086    -0.03100
C1489       C  0.90385966  0.31714882  0.50633509     0.06800
C1490       C  0.89967660  0.32711754  0.53825281    -0.03300
Br1491     Br  0.92043632  0.29723112  0.57105973    -0.01800
Br1492     Br  0.86970159  0.36974422  0.59041500    -0.01900
Br1493     Br  0.90570969  0.33527024  0.94083532    -0.01900
Br1494     Br  0.84204727  0.39763627  0.95918331    -0.01900
C1495       C  0.59675946  0.37832884  0.51175929    -0.03000
C1496       C  0.63160771  0.36089119  0.50672073     0.06700
C1497       C  0.63289987  0.32769314  0.48905678    -0.03100
C1498       C  0.59931185  0.31053715  0.47905442    -0.03100
C1499       C  0.55924105  0.33012379  0.98725508     0.06800
C1500       C  0.55871429  0.36702181  0.99912994    -0.03300
Br1501     Br  0.51264896  0.39512252  0.00251420    -0.01800
Br1502     Br  0.59135413  0.43500732  0.02390590    -0.01900
Br1503     Br  0.60295149  0.26584268  0.45398344    -0.01900
Br1504     Br  0.68035096  0.30408327  0.47933454    -0.01900
C1505       C  0.62750995  0.11486130  0.73801454    -0.03000
C1506       C  0.62318717  0.14603878  0.75763436     0.06700
C1507       C  0.63627229  0.14339151  0.78919603    -0.03100
C1508       C  0.65544322  0.11163876  0.79986813    -0.03100
C1509       C  0.66528877  0.08382589  0.77883508     0.06800
C1510       C  0.64856626  0.08378094  0.74870694    -0.03300
Br1511     Br  0.65539380  0.04098160  0.72250345    -0.01800
Br1512     Br  0.60812351  0.11634121  0.69577915    -0.01900
Br1513     Br  0.67284702  0.10741945  0.84273666    -0.01900
Br1514     Br  0.63275190  0.18369730  0.81819106    -0.01900
C1515       C  0.46942635  0.35122307  0.76877231    -0.03000
C1516       C  0.46587739  0.31829448  0.75102260     0.06700
C1517       C  0.42951653  0.30487166  0.74367525    -0.03100
C1518       C  0.39798467  0.32763291  0.74828726    -0.03100
C1519       C  0.40155808  0.36142381  0.76510810     0.06800
C1520       C  0.43752222  0.37261836  0.77584677    -0.03300
Br1521     Br  0.44418896  0.41793859  0.79949438    -0.01800
Br1522     Br  0.51726005  0.36462828  0.78745914    -0.01900
Br1523     Br  0.35011713  0.31036439  0.73188412    -0.01900
Br1524     Br  0.42098610  0.25393840  0.73068529    -0.01900
C1525       C  0.55960618  0.26973852  0.85144807    -0.03000
C1526       C  0.55297207  0.23890741  0.83219602     0.06700
C1527       C  0.53127872  0.20892168  0.84348496    -0.03100
C1528       C  0.51429169  0.21083627  0.87319009    -0.03100
C1529       C  0.51848497  0.24303901  0.89163180     0.06800
C1530       C  0.54202865  0.27230377  0.88064507    -0.03300
Br1531     Br  0.54950393  0.31815104  0.90364191    -0.01800
Br1532     Br  0.59002816  0.31057616  0.83670821    -0.01900
Br1533     Br  0.48221548  0.17090678  0.88669340    -0.01900
Br1534     Br  0.52426640  0.16518707  0.81794807    -0.01900
C1535       C  0.46048359  0.26064421  0.60387641    -0.03000
C1536       C  0.47876433  0.24023679  0.58032811     0.06700
C1537       C  0.50835024  0.21547614  0.58905780    -0.03100
C1538       C  0.52039590  0.21292847  0.62057814    -0.03100
C1539       C  0.50577176  0.23750230  0.64290132     0.06800
C1540       C  0.47517265  0.26079217  0.63448480    -0.03300
Br1541     Br  0.45389667  0.29519337  0.66406822    -0.01800
Br1542     Br  0.41620689  0.29019536  0.59488036    -0.01900
Br1543     Br  0.55835712  0.17715469  0.63271817    -0.01900
Br1544     Br  0.53275796  0.18407782  0.55859297    -0.01900
C1545       C  0.72221619  0.32558752  0.64271330    -0.03000
C1546       C  0.71060710  0.32208147  0.61112556     0.06700
C1547       C  0.68084488  0.29761090  0.60409209    -0.03100
C1548       C  0.65933512  0.28190620  0.62838738    -0.03100
C1549       C  0.66824155  0.28903767  0.66034244     0.06800
C1550       C  0.70108645  0.30970740  0.66720364    -0.03300
Br1551     Br  0.71453294  0.32181961  0.70987095    -0.01800
Br1552     Br  0.76676322  0.35357683  0.65240292    -0.01900
Br1553     Br  0.61545890  0.25346480  0.61698492    -0.01900
Br1554     Br  0.66692276  0.28783028  0.56118247    -0.01900
C1555       C  0.86760568  0.61947677  0.79294532    -0.03000
C1556       C  0.84848878  0.59874420  0.77014783     0.06700
C1557       C  0.86077080  0.60071484  0.73858767    -0.03100
C1558       C  0.88965738  0.62556352  0.72993209    -0.03100
C1559       C  0.90632211  0.64873096  0.75245757     0.06800
C1560       C  0.89751834  0.64268823  0.78435625    -0.03300
Br1561     Br  0.92678981  0.66423221  0.81715293    -0.01800
Br1562     Br  0.85017511  0.61880796  0.83571480    -0.01900
Br1563     Br  0.90695695  0.62851044  0.68730015    -0.01900
Br1564     Br  0.83573649  0.57340200  0.70611386    -0.01900
C1565       C  0.69228806  0.40307579  0.78396145    -0.03000
C1566       C  0.67687055  0.43870438  0.77776038     0.06700
C1567       C  0.64297546  0.44104523  0.76021338    -0.03100
C1568       C  0.62337435  0.40858943  0.75143120    -0.03100
C1569       C  0.63657683  0.37312536  0.76104182     0.06800
C1570       C  0.67089504  0.37091144  0.77822550    -0.03300
Br1571     Br  0.69040341  0.32421311  0.79425194    -0.01800
Br1572     Br  0.74418410  0.39636081  0.79726760    -0.01900
Br1573     Br  0.57786405  0.41404396  0.72659096    -0.01900
Br1574     Br  0.62548125  0.48841028  0.74423840    -0.01900
C1575       C  0.58565315  0.59427871  0.77412625    -0.03000
C1576       C  0.62068701  0.60398200  0.76084177     0.06700
C1577       C  0.62159030  0.63263112  0.73790535    -0.03100
C1578       C  0.58801307  0.64889017  0.72706847    -0.03100
C1579       C  0.55407834  0.64154946  0.74247065     0.06800
C1580       C  0.55330171  0.61511178  0.76680038    -0.03300
Br1581     Br  0.50917715  0.60997713  0.79249757    -0.01800
Br1582     Br  0.58026712  0.55173334  0.80139789    -0.01900
Br1583     Br  0.58859804  0.68012734  0.69012406    -0.01900
Br1584     Br  0.66801868  0.65401775  0.72328264    -0.01900
C1585       C  0.73997219  0.53778953  0.66772630    -0.03000
C1586       C  0.75986182  0.52086418  0.69270851     0.06700
C1587       C  0.78438498  0.49058407  0.68599855    -0.03100
C1588       C  0.78587045  0.47563389  0.65552966    -0.03100
C1589       C  0.76274851  0.49012104  0.63173496     0.06800
C1590       C  0.74240357  0.52298935  0.63731759    -0.03300
Br1591     Br  0.72034800  0.54949011  0.60262376    -0.01800
Br1592     Br  0.70662540  0.57911820  0.67476274    -0.01900
Br1593     Br  0.81989440  0.43565299  0.64610887    -0.01900
Br1594     Br  0.81676222  0.46887344  0.71783517    -0.01900
C1595       C  0.73736991  0.45183277  0.89026458    -0.03000
C1596       C  0.76287692  0.48039008  0.88183898     0.06700
C1597       C  0.79126892  0.49067517  0.90334176    -0.03100
C1598       C  0.79156011  0.47547158  0.93392826    -0.03100
C1599       C  0.76462859  0.44829223  0.94263348     0.06800
C1600       C  0.73838039  0.43589392  0.92027909    -0.03300
Br1601     Br  0.69987669  0.40077257  0.93182935    -0.01800
Br1602     Br  0.69890855  0.43473933  0.86161932    -0.01900
Br1603     Br  0.82824607  0.49339845  0.96404209    -0.01900
Br1604     Br  0.82824118  0.52724854  0.89184912    -0.01900
C1605       C  0.65526604  0.80862319  0.54087302    -0.03000
C1606       C  0.62998208  0.81358203  0.51502108     0.06700
C1607       C  0.62118332  0.84996171  0.00519210    -0.03100
C1608       C  0.64258540  0.87935293  0.01871940    -0.03100
C1609       C  0.66985822  0.87430865  0.54176126     0.06800
C1610       C  0.67114806  0.83941438  0.55599562    -0.03300
Br1611     Br  0.69947829  0.83415854  0.59458692    -0.01800
Br1612     Br  0.67217415  0.76075395  0.55574274    -0.01900
Br1613     Br  0.63530484  0.92947563  0.00479646    -0.01900
Br1614     Br  0.58726576  0.86016494  0.97079673    -0.01900
C1615       C  0.42820818  0.66583991  0.48771572    -0.03000
C1616       C  0.45738230  0.64812994  0.99430531     0.06700
C1617       C  0.45835503  0.61000508  0.00378094    -0.03100
C1618       C  0.42509717  0.59139974  0.01204608    -0.03100
C1619       C  0.39523073  0.61107405  0.50753234     0.06800
C1620       C  0.39442477  0.64740021  0.49504698    -0.03300
Br1621     Br  0.34702540  0.67225990  0.48708831    -0.01800
Br1622     Br  0.42435513  0.71666538  0.47278350    -0.01900
Br1623     Br  0.42729922  0.53984502  0.02489601    -0.01900
Br1624     Br  0.50461245  0.58153506  0.00732104    -0.01900
C1625       C  0.55520934  0.74865666  0.60499378    -0.03000
C1626       C  0.54855678  0.72011730  0.58293800     0.06700
C1627       C  0.51955896  0.69467082  0.58865704    -0.03100
C1628       C  0.49610714  0.69877155  0.61452996    -0.03100
C1629       C  0.50482180  0.72490334  0.63827563     0.06800
C1630       C  0.53451088  0.75016800  0.63319884    -0.03300
Br1631     Br  0.54741498  0.78658926  0.66457591    -0.01800
Br1632     Br  0.59133861  0.78653209  0.59636763    -0.01900
Br1633     Br  0.45052244  0.66952467  0.61555901    -0.01900
Br1634     Br  0.51234376  0.65291301  0.56126430    -0.01900
C1635       C  0.50406934  0.75700492  0.84097179    -0.03000
C1636       C  0.47827624  0.72911385  0.83125953     0.06700
C1637       C  0.46394337  0.70432002  0.85354323    -0.03100
C1638       C  0.47590384  0.70649743  0.88482117    -0.03100
C1639       C  0.50361612  0.73257091  0.89427235     0.06800
C1640       C  0.51577665  0.75935079  0.87265834    -0.03300
Br1641     Br  0.54868550  0.79878285  0.88626579    -0.01800
Br1642     Br  0.52418986  0.79190150  0.81117137    -0.01900
Br1643     Br  0.45393455  0.67241710  0.91431880    -0.01900
Br1644     Br  0.43137446  0.66392525  0.84101831    -0.01900
C1645       C  0.67602836  0.67128895  0.85580031    -0.03000
C1646       C  0.70479781  0.64491899  0.86093618     0.06700
C1647       C  0.71881152  0.64038045  0.89186834    -0.03100
C1648       C  0.69979889  0.65606182  0.91775777    -0.03100
C1649       C  0.66664860  0.67712523  0.91281669     0.06800
C1650       C  0.65733251  0.68746977  0.88156546    -0.03300
Br1651     Br  0.61815429  0.72351974  0.87385665    -0.01800
Br1652     Br  0.65992369  0.68334595  0.81370640    -0.01900
Br1653     Br  0.71797434  0.64580949  0.95963398    -0.01900
Br1654     Br  0.76403605  0.61179540  0.89846964    -0.01900
C1655       C  0.62901532  0.57538508  0.54138289    -0.03000
C1656       C  0.63171153  0.58799225  0.51007035     0.06700
C1657       C  0.65021097  0.56546873  0.48776435    -0.03100
C1658       C  0.66906352  0.53315188  0.49753622    -0.03100
C1659       C  0.66808123  0.52191089  0.52904197     0.06800
C1660       C  0.64450812  0.54081970  0.54998416    -0.03300
Br1661     Br  0.63027924  0.51785221  0.58900819    -0.01800
Br1662     Br  0.60476639  0.60499495  0.57295701    -0.01900
Br1663     Br  0.69306698  0.50230814  0.46694541    -0.01900
Br1664     Br  0.64320618  0.57874578  0.94461155    -0.01900
loop_ 
_geom_bond_atom_site_label_1 
_geom_bond_atom_site_label_2 
_geom_bond_distance 
_geom_bond_site_symmetry_2 
_ccdc_geom_bond_type 
O1           C16   1.260       .  A
O1           Al9   1.869       .  S
C2           O12   1.253       .  A
C2            O3   1.272       .  A
C2          C794   1.480       .  S
O3           Al5   1.968       .  S
O4            C6   1.251       .  A
O4           Al5   1.896       .  S
Al5         O845   1.883   1_554  S
Al5         O847   1.986   1_554  S
Al5         O846   1.779   1_554  S
C6          O851   1.250   1_554  A
C6          C824   1.483       .  S
O7           C17   1.261       .  A
O7           Al9   1.883       .  S
O8           C21   1.271       .  A
O8          Al18   1.946       .  S
Al9          O22   1.859       .  S
Al9          O19   1.885       .  S
Al9          O14   1.782       .  S
O10          C17   1.270       .  A
O10         Al18   1.942       .  S
O11          C20   1.268       .  A
O11         Al18   1.958       .  S
O12        Al850   1.848   1_554  S
O13          C20   1.253       .  A
O13        Al837   1.880       .  S
O14         Al18   1.799       .  S
O14        Al837   1.782       .  S
O15          C16   1.279       .  A
O15        Al837   1.984       .  S
C16         C817   1.503       .  S
C17         C784   1.507       .  S
Al18        O844   1.854       .  S
O19         C838   1.249       .  A
C20        C1606   1.505       .  S
C21          O22   1.251       .  A
C21         C807   1.489       .  S
O23          C38   1.266       .  A
O23         Al31   1.890       .  S
C24          O34   1.253       .  A
C24          O25   1.272       .  A
C24         C754   1.502       .  S
O25         Al27   1.956       .  S
O26          C28   1.255       .  A
O26         Al27   1.912       .  S
Al27         O35   1.881       .  S
Al27         O37   1.985       .  S
Al27         O36   1.773       .  S
C28          O41   1.254       .  A
C28         C744   1.504       .  S
O29          C39   1.268       .  A
O29         Al31   1.905       .  S
O30          C43   1.269       .  A
O30         Al40   1.933       .  S
Al31         O44   1.896       .  S
Al31         O41   1.911       .  S
Al31         O36   1.780       .  S
O32          C39   1.263       .  A
O32         Al40   1.899       .  S
O33          C42   1.263       .  A
O33         Al40   1.934       .  S
O34         Al40   1.870       .  S
O35          C42   1.259       .  A
O36         Al40   1.784       .  S
O37          C38   1.281       .  A
C38         C814   1.500       .  S
C39         C734   1.489       .  S
C42         C724   1.481       .  S
C43          O44   1.258       .  A
C43         C764   1.490       .  S
O45          C60   1.252       .  A
O45         Al53   1.866       .  S
C46          O56   1.265       .  A
C46          O47   1.252       .  A
C46         C694   1.477       .  S
O47         Al49   1.861       .  S
O48          C50   1.266       .  A
O48         Al49   1.911       .  S
Al49         O57   1.936       .  S
Al49         O59   1.935       .  S
Al49         O58   1.795       .  S
C50          O63   1.269       .  A
C50         C684   1.490       .  S
O51          C61   1.248       .  A
O51         Al53   1.898       .  S
O52          C65   1.282       .  A
O52         Al62   1.982       .  S
Al53         O66   1.879       .  S
Al53         O63   1.909       .  S
Al53         O58   1.785       .  S
O54          C61   1.245       .  A
O54         Al62   1.885       .  S
O55          C64   1.258       .  A
O55         Al62   1.888       .  S
O56         Al62   1.914       .  S
O57          C64   1.265       .  A
O58         Al62   1.770       .  S
O59          C60   1.269       .  A
C60         C707   1.485       .  S
C61         C737   1.483       .  S
C64         C674   1.496       .  S
C65          O66   1.266       .  A
C65         C717   1.499       .  S
O67          C82   1.265       .  A
O67         Al75   1.931       .  S
C68          O78   1.272       .  A
C68          O69   1.251       .  A
C68         C767   1.487       .  S
O69        Al903   1.850       .  S
O70          C72   1.277       .  A
O70         Al71   1.965       .  S
Al71         O79   1.978       .  S
Al71         O81   1.914       .  S
Al71        O901   1.851   1_554  S
Al71         O80   1.785       .  S
C72          O85   1.256       .  A
C72         C827   1.477       .  S
O73          C83   1.264       .  A
O73         Al75   1.941       .  S
O74          C87   1.279       .  A
O74         Al84   1.989       .  S
Al75         O88   1.879       .  S
Al75         O85   1.868       .  S
Al75         O80   1.783       .  S
O76          C83   1.253       .  A
O76         Al84   1.888       .  S
O77          C86   1.258       .  A
O77         Al84   1.876       .  S
O78        Al916   1.956       .  S
O79          C86   1.273       .  A
O80         Al84   1.771       .  S
O81          C82   1.263       .  A
C82         C757   1.485       .  S
C83         C664   1.488       .  S
Al84        O910   1.957   1_554  S
C86         C654   1.495       .  S
C87          O88   1.262       .  A
C87         C714   1.502       .  S
O89         C104   1.260       .  A
O89         Al97   1.871       .  S
C90         O100   1.253       .  A
C90          O91   1.267       .  A
C90         C704   1.485       .  S
O91         Al93   1.920       .  S
O92          C94   1.252   1_554  A
O92         Al93   1.900       .  S
Al93        O933   1.877   1_554  S
Al93        O935   1.970   1_554  S
Al93        O934   1.784   1_554  S
C94         O939   1.249       .  A
C94         C647   1.475   1_556  S
O95         C105   1.263       .  A
O95         Al97   1.891       .  S
O96         C109   1.271       .  A
O96        Al106   1.943       .  S
Al97        O110   1.850       .  S
Al97        O107   1.888       .  S
Al97        O102   1.782       .  S
O98         C105   1.265       .  A
O98        Al106   1.919       .  S
O99         C108   1.267       .  A
O99        Al106   1.955       .  S
O100       Al938   1.865   1_554  S
O101        C108   1.255       .  A
O101       Al925   1.871       .  S
O102       Al106   1.802       .  S
O102       Al925   1.789       .  S
O103        C104   1.273       .  A
O103       Al925   1.964       .  S
C104        C634   1.496       .  S
C105        C667   1.493       .  S
Al106       O932   1.871       .  S
O107        C926   1.252       .  A
C108       C1459   1.489       .  S
C109        O110   1.248       .  A
C109        C697   1.491       .  S
O111        C126   1.263       .  A
O111       Al119   1.881       .  S
C112        O122   1.253       .  A
C112        O113   1.267       .  A
C112        C604   1.489       .  S
O113       Al115   1.932       .  S
O114        C116   1.251       .  A
O114       Al115   1.900       .  S
Al115       O123   1.880       .  S
Al115       O125   1.972       .  S
Al115       O124   1.777       .  S
C116        O129   1.255       .  A
C116        C687   1.494       .  S
O117        C127   1.269       .  A
O117       Al119   1.904       .  S
O118        C131   1.270       .  A
O118       Al128   1.936       .  S
Al119       O132   1.879       .  S
Al119       O129   1.916       .  S
Al119       O124   1.784       .  S
O120        C127   1.261       .  A
O120       Al128   1.891       .  S
O121        C130   1.263       .  A
O121       Al128   1.932       .  S
O122       Al128   1.874       .  S
O123        C130   1.257       .  A
O124       Al128   1.789       .  S
O125        C126   1.278       .  A
C126        C637   1.490       .  S
C127        C594   1.481       .  S
C130        C587   1.480       .  S
C131        O132   1.253       .  A
C131        C617   1.496       .  S
O133        C148   1.256       .  A
O133       Al141   1.882       .  S
C134        O144   1.271       .  A
C134        O135   1.256       .  A
C134        C804   1.483       .  S
O135       Al137   1.870       .  S
O136        C138   1.272       .  A
O136       Al137   1.943       .  S
Al137       O145   1.951       .  S
Al137       O147   1.940       .  S
Al137       O146   1.787       .  S
C138        O151   1.266       .  A
C138        C747   1.479       .  S
O139        C149   1.251       .  A
O139       Al141   1.899       .  S
O140        C153   1.281       .  A
O140       Al150   1.987       .  S
Al141       O154   1.877       .  S
Al141       O151   1.887       .  S
Al141       O146   1.776       .  S
O142        C149   1.250       .  A
O142       Al150   1.894       .  S
O143        C152   1.256       .  A
O143       Al150   1.883       .  S
O144       Al150   1.928       .  S
O145        C152   1.267       .  A
O146       Al150   1.767       .  S
O147        C148   1.271       .  A
C148        C797   1.486       .  S
C149        C597   1.482       .  S
C152        C564   1.492       .  S
C153        O154   1.263       .  A
C153        C574   1.497       .  S
O155        C170   1.261       .  A
O155       Al163   1.914       .  S
C156        O166   1.270       .  A
C156        O157   1.254       .  A
C156        C614   1.488       .  S
O157       Al991   1.859       .  S
O158        C160   1.275       .  A
O158       Al159   1.955       .  S
Al159       O167   1.959       .  S
Al159       O169   1.918       .  S
Al159       O989   1.857   1_554  S
Al159       O168   1.792       .  S
C160        O173   1.262       .  A
C160        C644   1.478       .  S
O161        C171   1.259       .  A
O161       Al163   1.926       .  S
O162        C175   1.283       .  A
O162       Al172   2.001       .  S
Al163       O176   1.878       .  S
Al163       O173   1.880       .  S
Al163       O168   1.779       .  S
O164        C171   1.252       .  A
O164       Al172   1.895       .  S
O165        C174   1.253       .  A
O165       Al172   1.841       .  S
O166      Al1004   1.952       .  S
O167        C174   1.267       .  A
O168       Al172   1.772       .  S
O169        C170   1.263       .  A
C170        C607   1.485       .  S
C171        C787   1.488       .  S
Al172       O998   1.968   1_554  S
C174        C554   1.485       .  S
C175        O176   1.263       .  A
C175        C577   1.508       .  S
O177        C192   1.266       .  A
O177       Al185   1.903       .  S
C178        O188   1.254       .  A
C178        O179   1.273       .  A
C178        C514   1.490       .  S
O179       Al181   1.949       .  S
O180        C182   1.250       .  A
O180       Al181   1.893       .  S
Al181       O189   1.883       .  S
Al181       O191   1.987       .  S
Al181       O190   1.769       .  S
C182        O195   1.254       .  A
C182        C544   1.481       .  S
O183        C193   1.266   1_455  A
O183       Al185   1.905       .  S
O184        C197   1.273       .  A
O184       Al194   1.925       .  S
Al185       O198   1.883       .  S
Al185       O195   1.900       .  S
Al185       O190   1.778       .  S
O186        C193   1.259       .  A
O186       Al194   1.896   1_655  S
O187        C196   1.262       .  A
O187       Al194   1.941       .  S
O188       Al194   1.868       .  S
O189        C196   1.257       .  A
O190       Al194   1.794       .  S
O191        C192   1.281       .  A
C192        C537   1.511       .  S
C193        C504   1.472       .  S
C196        C584   1.484       .  S
C197        O198   1.257       .  A
C197        C527   1.482       .  S
O199        C214   1.265       .  A
O199       Al207   1.887       .  S
C200        O210   1.251       .  A
C200        O201   1.267       .  A
C200        C487   1.490       .  S
O201      Al1035   1.932       .  S
O202        C204   1.262       .  A
O202       Al203   1.921       .  S
Al203       O211   1.877       .  S
Al203       O213   1.998       .  S
Al203      O1033   1.968   1_554  S
Al203       O212   1.773       .  S
C204        O217   1.255       .  A
C204        C474   1.486       .  S
O205        C215   1.255   1_545  A
O205       Al207   1.861       .  S
O206        C219   1.260   1_545  A
O206       Al216   1.908       .  S
Al207       O220   1.909       .  S
Al207       O217   1.895       .  S
Al207       O212   1.778       .  S
O208        C215   1.274       .  A
O208       Al216   1.957   1_565  S
O209        C218   1.269       .  A
O209       Al216   1.959       .  S
O210      Al1048   1.857       .  S
O211        C218   1.261       .  A
O212       Al216   1.786       .  S
O213        C214   1.281       .  A
C214        C534   1.518       .  S
C215        C464   1.470       .  S
Al216      O1042   1.840   1_554  S
C218        C624   1.490       .  S
C219        O220   1.259   1_565  A
C219        C494   1.472       .  S
O221        C236   1.253       .  A
O221       Al229   1.864       .  S
C222        O232   1.273       .  A
C222        O223   1.253       .  A
C222        C444   1.486       .  S
O223      Al1057   1.856   1_554  S
O224       C1058   1.277       .  A
O224      Al1057   1.932   1_655  S
Al225       O233   1.958       .  S
Al225       O235   1.934       .  S
Al225      O1055   1.852       .  S
Al225      O1056   1.936       .  S
Al225       O234   1.802       .  S
C226        O239   1.248       .  A
C226       O1056   1.278       .  A
C226        C424   1.503   1_455  S
O227       C1069   1.249       .  A
O227       Al229   1.881       .  S
O228        C241   1.276       .  A
O228      Al1070   1.971       .  S
Al229       O242   1.865       .  S
Al229       O239   1.875       .  S
Al229       O234   1.780       .  S
O230        C237   1.249   1_554  A
O230       Al238   1.877       .  S
O231       C1072   1.252       .  A
O231       Al238   1.869   1_556  S
O232       Al238   1.973       .  S
O233        C240   1.267       .  A
O234      Al1070   1.777       .  S
O235        C236   1.270       .  A
C236        C457   1.482       .  S
C237       O1059   1.253       .  A
C237        C467   1.479   1_556  S
Al238      O1060   1.983   1_554  S
Al238      O1066   1.776   1_554  S
C240       O1063   1.251       .  A
C240       C1389   1.500       .  S
C241        O242   1.260       .  A
C241        C437   1.495       .  S
O243        C258   1.255       .  A
O243       Al251   1.879       .  S
C244        O254   1.272       .  A
C244        O245   1.254       .  A
C244        C497   1.501       .  S
O245       Al247   1.869       .  S
O246        C248   1.263       .  A
O246       Al247   1.914       .  S
Al247       O255   1.950       .  S
Al247       O257   1.937       .  S
Al247       O256   1.788       .  S
C248        O261   1.261       .  A
C248        C547   1.497   1_565  S
O249        C259   1.252       .  A
O249       Al251   1.892       .  S
O250        C263   1.274       .  A
O250       Al260   1.958       .  S
Al251       O264   1.887       .  S
Al251       O261   1.889       .  S
Al251       O256   1.780       .  S
O252        C259   1.261       .  A
O252       Al260   1.915       .  S
O253        C262   1.257       .  A
O253       Al260   1.877       .  S
O254       Al260   1.959       .  S
O255        C262   1.264       .  A
O256       Al260   1.784       .  S
O257        C258   1.270       .  A
C258        C484   1.486       .  S
C259        C414   1.506       .  S
C262        C567   1.486       .  S
C263        O264   1.261       .  A
C263        C434   1.493       .  S
O265        C280   1.264       .  A
O265       Al273   1.875       .  S
C266        O276   1.256       .  A
C266        O267   1.270       .  A
C266        C454   1.474       .  S
O267       Al269   1.924       .  S
O268        C270   1.248       .  A
O268       Al269   1.882       .  S
Al269       O277   1.876       .  S
Al269       O279   1.972       .  S
Al269       O278   1.773       .  S
C270        O283   1.252       .  A
C270        C404   1.468       .  S
O271        C281   1.262   1_655  A
O271       Al273   1.890       .  S
O272        C285   1.271       .  A
O272       Al282   1.939       .  S
Al273       O286   1.893       .  S
Al273       O283   1.891       .  S
Al273       O278   1.771       .  S
O274        C281   1.272       .  A
O274       Al282   1.949   1_455  S
O275        C284   1.267       .  A
O275       Al282   1.955       .  S
O276       Al282   1.865       .  S
O277        C284   1.255       .  A
O278       Al282   1.787       .  S
O279        C280   1.276       .  A
C280        C394   1.486       .  S
C281        C417   1.473       .  S
C284        C727   1.488       .  S
C285        O286   1.258       .  A
C285        C447   1.493   1_655  S
O287        C302   1.263       .  A
O287       Al295   1.884       .  S
C288        O298   1.260       .  A
C288        O289   1.264       .  A
C288        C377   1.482       .  S
O289      Al1123   1.918       .  S
O290        C292   1.245       .  A
O290       Al291   1.873       .  S
Al291       O299   1.840       .  S
Al291       O301   1.976       .  S
Al291      O1121   1.949   1_554  S
Al291       O300   1.776       .  S
C292        O305   1.256       .  A
C292        C427   1.471       .  S
O293        C303   1.263       .  A
O293       Al295   1.885       .  S
O294        C307   1.269       .  A
O294       Al304   1.941       .  S
Al295       O308   1.891       .  S
Al295       O305   1.908       .  S
Al295       O300   1.783       .  S
O296        C303   1.273       .  A
O296       Al304   1.953       .  S
O297        C306   1.267       .  A
O297       Al304   1.968       .  S
O298      Al1136   1.890       .  S
O299        C306   1.251       .  A
O300       Al304   1.792       .  S
O301        C302   1.277       .  A
C302        C397   1.496       .  S
C303        C367   1.475   1_565  S
Al304      O1130   1.884       .  S
C306        C777   1.496       .  S
C307        O308   1.256       .  A
C307        C384   1.495       .  S
O309        C324   1.258   1_655  A
O309       Al317   1.899       .  S
C310        O320   1.269       .  A
C310        O311   1.251       .  A
C310        C524   1.485       .  S
O311      Al1145   1.843   1_554  S
O312       C1146   1.272       .  A
O312      Al1145   1.953   1_455  S
Al313       O321   1.940       .  S
Al313       O323   1.913       .  S
Al313      O1143   1.841       .  S
Al313      O1144   1.956   1_655  S
Al313       O322   1.787       .  S
C314        O327   1.264   1_455  A
C314       O1144   1.274       .  A
C314        C477   1.490       .  S
O315       C1157   1.252       .  A
O315       Al317   1.899       .  S
O316        C329   1.276       .  A
O316      Al1158   1.959       .  S
Al317       O330   1.896       .  S
Al317       O327   1.897       .  S
Al317       O322   1.789       .  S
O318        C325   1.256   1_554  A
O318       Al326   1.904       .  S
O319       C1160   1.259       .  A
O319       Al326   1.895   1_556  S
O320       Al326   1.941       .  S
O321        C328   1.265       .  A
O322      Al1158   1.781       .  S
O323        C324   1.260   1_655  A
C324        C517   1.475       .  S
C325       O1147   1.254       .  A
C325        C364   1.485   1_556  S
Al326      O1148   1.962   1_554  S
Al326      O1154   1.782   1_554  S
C328       O1151   1.258       .  A
C328       C1489   1.489       .  S
C329        O330   1.268       .  A
C329        C357   1.508       .  S
O331        C346   1.259       .  A
O331       Al339   1.880       .  S
C332        O342   1.266       .  A
C332        O333   1.266       .  A
C332        C387   1.478       .  S
O333       Al335   1.925       .  S
O334        C336   1.258       .  A
O334       Al335   1.895   1_565  S
Al335       O343   1.918       .  S
Al335       O345   1.933   1_545  S
Al335       O344   1.792       .  S
C336        O349   1.253       .  A
C336        C407   1.467       .  S
O337        C347   1.254       .  A
O337       Al339   1.898       .  S
O338        C351   1.273       .  A
O338       Al348   1.943       .  S
Al339       O352   1.906       .  S
Al339       O349   1.882   1_545  S
Al339       O344   1.784       .  S
O340        C347   1.253       .  A
O340       Al348   1.884       .  S
O341        C350   1.255       .  A
O341       Al348   1.878       .  S
O342       Al348   1.916       .  S
O343        C350   1.262       .  A
O344       Al348   1.787       .  S
O345        C346   1.267   1_565  A
C346        C374   1.480   1_545  S
C347        C507   1.478       .  S
C350        C677   1.468       .  S
C351        O352   1.263       .  A
C351        C354   1.485       .  S
C353        C354   1.408       .  A
C353        C358   1.417       .  A
C353       Br360   1.924       .  S
C354        C355   1.406       .  A
C355        C356   1.410       .  A
C355       Br362   1.927       .  S
C356        C357   1.419       .  A
C356       Br361   1.927       .  S
C357        C358   1.421       .  A
C358       Br359   1.932       .  S
C363        C364   1.410       .  A
C363        C368   1.408       .  A
C363       Br370   1.924       .  S
C364       C1197   1.415   1_554  A
C365       C1196   1.409       .  A
C365       C1198   1.404       .  A
C365       Br372   1.928       .  S
C366        C367   1.406   1_556  A
C366       C1197   1.406       .  A
C366      Br1203   1.919       .  S
C367        C368   1.408       .  A
C368       Br369   1.930       .  S
Br371      C1198   1.921       .  S
C373        C374   1.406       .  A
C373        C378   1.410       .  A
C373       Br380   1.929   1_565  S
C374        C375   1.416       .  A
C375        C376   1.407       .  A
C375       Br382   1.932       .  S
C376        C377   1.410       .  A
C376       Br381   1.932       .  S
C377        C378   1.410       .  A
C378       Br379   1.913       .  S
C383        C384   1.420   1_545  A
C383        C388   1.418       .  A
C383       Br390   1.928       .  S
C384        C385   1.423       .  A
C385        C386   1.400   1_565  A
C385       Br392   1.936       .  S
C386        C387   1.396       .  A
C386       Br391   1.920       .  S
C387        C388   1.406       .  A
C388       Br389   1.924       .  S
C393        C394   1.405       .  A
C393        C398   1.410       .  A
C393       Br400   1.931       .  S
C394        C395   1.410       .  A
C395        C396   1.413       .  A
C395       Br402   1.922       .  S
C396        C397   1.415       .  A
C396       Br401   1.930       .  S
C397        C398   1.414       .  A
C398       Br399   1.914       .  S
C403        C404   1.412       .  A
C403        C408   1.403       .  A
C403       Br410   1.934       .  S
C404        C405   1.409       .  A
C405        C406   1.401       .  A
C405       Br412   1.934       .  S
C406        C407   1.411       .  A
C406       Br411   1.930       .  S
C407        C408   1.409       .  A
C408       Br409   1.933       .  S
C413        C414   1.431       .  A
C413        C418   1.410       .  A
C413       Br420   1.941       .  S
C414        C415   1.422       .  A
C415        C416   1.410       .  A
C415       Br422   1.921       .  S
C416        C417   1.401       .  A
C416       Br421   1.934       .  S
C417        C418   1.403       .  A
C418       Br419   1.931       .  S
C423        C424   1.420       .  A
C423        C428   1.409       .  A
C423       Br430   1.944       .  S
C424       C1257   1.435       .  A
C425        C426   1.407   1_556  A
C425       C1256   1.435       .  A
C425       Br432   1.939   1_655  S
C426        C427   1.399       .  A
C426       Br431   1.936       .  S
C427       C1260   1.407   1_554  A
C428       C1259   1.413       .  A
C428       Br429   1.936       .  S
C433        C434   1.411       .  A
C433        C438   1.410       .  A
C433       Br440   1.932       .  S
C434        C435   1.416       .  A
C435        C436   1.416       .  A
C435       Br442   1.926       .  S
C436        C437   1.412       .  A
C436       Br441   1.931       .  S
C437        C438   1.415       .  A
C438       Br439   1.929       .  S
C443        C444   1.414       .  A
C443        C448   1.416       .  A
C443       Br450   1.916       .  S
C444        C445   1.407       .  A
C445        C446   1.402   1_455  A
C445       Br452   1.929       .  S
C446        C447   1.420   1_655  A
C446       Br451   1.938       .  S
C447        C448   1.415       .  A
C448       Br449   1.931       .  S
C453        C454   1.418   1_455  A
C453        C458   1.411       .  A
C453       Br460   1.933       .  S
C454        C455   1.402       .  A
C455        C456   1.398       .  A
C455       Br462   1.938       .  S
C456        C457   1.423   1_655  A
C456       Br461   1.931       .  S
C457        C458   1.408       .  A
C458       Br459   1.929       .  S
C463        C464   1.408       .  A
C463        C468   1.405       .  A
C463       Br470   1.934       .  S
C464        C465   1.407   1_554  A
C465       C1298   1.404       .  A
C465      Br1304   1.923       .  S
C466       C1297   1.402       .  A
C466       C1299   1.418       .  A
C466       Br471   1.941       .  S
C467        C468   1.414       .  A
C467       C1298   1.417   1_554  A
C468       Br469   1.930       .  S
Br472      C1297   1.923       .  S
C473        C478   1.413       .  A
C473       C1306   1.411       .  A
C473       Br480   1.927       .  S
C474        C475   1.412       .  A
C474       C1305   1.411   1_554  A
C475        C476   1.403       .  A
C475       Br482   1.936       .  S
C476       C1309   1.412   1_554  A
C476       Br481   1.919       .  S
C477        C478   1.416       .  A
C477       C1308   1.414       .  A
C478       Br479   1.931       .  S
C483        C484   1.406       .  A
C483        C488   1.412       .  A
C483       Br490   1.928       .  S
C484        C485   1.421   1_565  A
C485        C486   1.403       .  A
C485       Br492   1.925       .  S
C486        C487   1.405       .  A
C486       Br491   1.933       .  S
C487        C488   1.422   1_545  A
C488       Br489   1.933       .  S
C493        C494   1.395       .  A
C493        C498   1.407       .  A
C493       Br500   1.929   1_565  S
C494        C495   1.406       .  A
C495        C496   1.409       .  A
C495       Br502   1.927       .  S
C496        C497   1.417       .  A
C496       Br501   1.925       .  S
C497        C498   1.431       .  A
C498       Br499   1.936   1_565  S
C503        C504   1.406       .  A
C503        C508   1.406       .  A
C503       Br510   1.934   1_655  S
C504        C505   1.408       .  A
C505        C506   1.396       .  A
C505       Br512   1.938       .  S
C506        C507   1.417       .  A
C506       Br511   1.938       .  S
C507        C508   1.419       .  A
C508       Br509   1.933       .  S
C513        C514   1.412       .  A
C513        C518   1.403       .  A
C513       Br520   1.929       .  S
C514        C515   1.426       .  A
C515        C516   1.410       .  A
C515       Br522   1.934   1_455  S
C516        C517   1.401       .  A
C516       Br521   1.928   1_455  S
C517        C518   1.406       .  A
C518       Br519   1.926       .  S
C523        C524   1.402       .  A
C523        C528   1.402       .  A
C523       Br530   1.931       .  S
C524        C525   1.422   1_655  A
C525        C526   1.407       .  A
C525       Br532   1.935       .  S
C526        C527   1.405       .  A
C526       Br531   1.929       .  S
C527        C528   1.424   1_455  A
C528       Br529   1.932       .  S
C533        C534   1.418       .  A
C533        C538   1.414       .  A
C533       Br540   1.927       .  S
C534        C535   1.420       .  A
C535        C536   1.424       .  A
C535       Br542   1.930       .  S
C536        C537   1.416       .  A
C536       Br541   1.925       .  S
C537        C538   1.410       .  A
C538       Br539   1.917       .  S
C543        C544   1.409       .  A
C543        C548   1.406       .  A
C543       Br550   1.933       .  S
C544        C545   1.411       .  A
C545        C546   1.407       .  A
C545       Br552   1.941       .  S
C546        C547   1.426       .  A
C546       Br551   1.943       .  S
C547        C548   1.421       .  A
C548       Br549   1.939   1_545  S
C553        C554   1.416       .  A
C553       C1390   1.417   1_554  A
C553      Br1392   1.910   1_554  S
C554        C555   1.402       .  A
C555        C556   1.401       .  A
C555       Br562   1.936       .  S
C556        C557   1.421       .  A
C556       Br561   1.931       .  S
C557       C1072   1.488   1_554  S
C557       C1390   1.407   1_554  A
C558       C1385   1.420       .  A
C558       C1389   1.416       .  A
C558       Br559   1.925       .  S
Br560      C1385   1.916       .  S
C563        C564   1.423       .  A
C563        C568   1.407       .  A
C563       Br570   1.912       .  S
C564        C565   1.403       .  A
C565        C566   1.414       .  A
C565       Br572   1.930       .  S
C566        C567   1.417       .  A
C566       Br571   1.910       .  S
C567        C568   1.397       .  A
C568       Br569   1.934       .  S
C573        C574   1.413       .  A
C573        C578   1.417       .  A
C573       Br580   1.932       .  S
C574        C575   1.409       .  A
C575        C576   1.414       .  A
C575       Br582   1.927       .  S
C576        C577   1.418       .  A
C576       Br581   1.922       .  S
C577        C578   1.415       .  A
C578       Br579   1.919       .  S
C583        C584   1.419       .  A
C583        C588   1.408       .  A
C583       Br590   1.908       .  S
C584        C585   1.398       .  A
C585        C586   1.407       .  A
C585       Br592   1.929       .  S
C586        C587   1.417       .  A
C586       Br591   1.911       .  S
C587        C588   1.398       .  A
C588       Br589   1.930       .  S
C593        C594   1.410       .  A
C593        C598   1.404       .  A
C593       Br600   1.936       .  S
C594        C595   1.421       .  A
C595        C596   1.406       .  A
C595       Br602   1.944       .  S
C596        C597   1.416       .  A
C596       Br601   1.940       .  S
C597        C598   1.415       .  A
C598       Br599   1.934       .  S
C603        C604   1.423       .  A
C603        C608   1.412       .  A
C603       Br610   1.934       .  S
C604        C605   1.410       .  A
C605        C606   1.405       .  A
C605       Br612   1.932       .  S
C606        C607   1.410       .  A
C606       Br611   1.924       .  S
C607        C608   1.405       .  A
C608       Br609   1.929       .  S
C613        C614   1.405       .  A
C613        C618   1.409       .  A
C613       Br620   1.933       .  S
C614        C615   1.415       .  A
C615        C616   1.413       .  A
C615       Br622   1.920       .  S
C616        C617   1.410       .  A
C616       Br621   1.930       .  S
C617        C618   1.428       .  A
C618       Br619   1.938       .  S
C623        C624   1.398       .  A
C623        C628   1.407       .  A
C623       Br630   1.938       .  S
C624       C1457   1.419   1_554  A
C625        C626   1.408       .  A
C625       C1456   1.421       .  A
C625       Br632   1.907       .  S
C626       C1459   1.398       .  A
C626       Br631   1.936       .  S
C627        C940   1.498   1_554  S
C627        C628   1.424       .  A
C627       C1458   1.405   1_554  A
C628       Br629   1.912       .  S
C633        C634   1.414       .  A
C633        C638   1.409       .  A
C633       Br640   1.931       .  S
C634        C635   1.411       .  A
C635        C636   1.415       .  A
C635       Br642   1.929       .  S
C636        C637   1.415       .  A
C636       Br641   1.927       .  S
C637        C638   1.410       .  A
C638       Br639   1.925       .  S
C643        C644   1.417       .  A
C643        C648   1.409       .  A
C643       Br650   1.933       .  S
C644        C645   1.409   1_554  A
C645        C646   1.401       .  A
C645       Br652   1.922       .  S
C646        C647   1.409   1_556  A
C646       Br651   1.928       .  S
C647        C648   1.407       .  A
C648       Br649   1.926       .  S
C653        C654   1.401       .  A
C653        C658   1.412       .  A
C653       Br660   1.933       .  S
C654        C655   1.420   1_554  A
C655       C1488   1.415       .  A
C655      Br1494   1.908       .  S
C656       C1487   1.410       .  A
C656       C1489   1.401       .  A
C656       Br661   1.931       .  S
C657       C1160   1.501   1_554  S
C657        C658   1.421       .  A
C657       C1488   1.402   1_554  A
C658       Br659   1.904       .  S
Br662      C1487   1.906       .  S
C663        C664   1.408       .  A
C663       C1500   1.412   1_554  A
C663      Br1502   1.935       .  S
C664        C665   1.414   1_554  A
C665        C666   1.410       .  A
C665       Br672   1.938       .  S
C666       C1499   1.423       .  A
C666       Br671   1.941       .  S
C667        C668   1.417       .  A
C667       C1498   1.421       .  A
C668       C1495   1.405       .  A
C668       Br669   1.929       .  S
Br670      C1495   1.935       .  S
C673        C674   1.410       .  A
C673        C678   1.417       .  A
C673       Br680   1.924       .  S
C674        C675   1.425       .  A
C675        C676   1.402       .  A
C675       Br682   1.915       .  S
C676        C677   1.391       .  A
C676       Br681   1.933       .  S
C677        C678   1.410       .  A
C678       Br679   1.922       .  S
C683        C684   1.412       .  A
C683        C688   1.411       .  A
C683       Br690   1.935       .  S
C684        C685   1.417       .  A
C685        C686   1.406       .  A
C685       Br692   1.943       .  S
C686        C687   1.420       .  A
C686       Br691   1.938       .  S
C687        C688   1.419       .  A
C688       Br689   1.934       .  S
C693        C694   1.401       .  A
C693        C698   1.402       .  A
C693       Br700   1.938       .  S
C694        C695   1.415       .  A
C695        C696   1.412       .  A
C695       Br702   1.933       .  S
C696        C697   1.411       .  A
C696       Br701   1.929       .  S
C697        C698   1.432       .  A
C698       Br699   1.943       .  S
C703        C704   1.403       .  A
C703        C708   1.401       .  A
C703       Br710   1.933       .  S
C704        C705   1.420       .  A
C705        C706   1.412       .  A
C705       Br712   1.932       .  S
C706        C707   1.408       .  A
C706       Br711   1.930       .  S
C707        C708   1.425       .  A
C708       Br709   1.933       .  S
C713        C714   1.415       .  A
C713        C718   1.414       .  A
C713       Br720   1.921       .  S
C714        C715   1.414       .  A
C715        C716   1.414       .  A
C715       Br722   1.922       .  S
C716        C717   1.413       .  A
C716       Br721   1.928       .  S
C717        C718   1.411       .  A
C718       Br719   1.926       .  S
C723        C724   1.395       .  A
C723        C728   1.406       .  A
C723       Br730   1.932       .  S
C724        C725   1.416       .  A
C725        C726   1.412       .  A
C725       Br732   1.913       .  S
C726        C727   1.403       .  A
C726       Br731   1.930       .  S
C727        C728   1.421       .  A
C728       Br729   1.908       .  S
C733        C734   1.421       .  A
C733        C738   1.403       .  A
C733       Br740   1.945       .  S
C734        C735   1.415       .  A
C735        C736   1.408       .  A
C735       Br742   1.938       .  S
C736        C737   1.416       .  A
C736       Br741   1.936       .  S
C737        C738   1.416       .  A
C738       Br739   1.941       .  S
C743        C744   1.426       .  A
C743        C748   1.409       .  A
C743       Br750   1.937       .  S
C744        C745   1.426       .  A
C745        C746   1.410       .  A
C745       Br752   1.932       .  S
C746        C747   1.407       .  A
C746       Br751   1.937       .  S
C747        C748   1.406       .  A
C748       Br749   1.938       .  S
C753        C754   1.416       .  A
C753        C758   1.410       .  A
C753       Br760   1.925       .  S
C754        C755   1.429       .  A
C755        C756   1.411       .  A
C755       Br762   1.936       .  S
C756        C757   1.400       .  A
C756       Br761   1.925       .  S
C757        C758   1.407       .  A
C758       Br759   1.924       .  S
C763        C764   1.421       .  A
C763        C768   1.407       .  A
C763       Br770   1.928       .  S
C764        C765   1.407       .  A
C765        C766   1.411       .  A
C765       Br772   1.927       .  S
C766        C767   1.422       .  A
C766       Br771   1.936       .  S
C767        C768   1.405       .  A
C768       Br769   1.933       .  S
C773        C774   1.428       .  A
C773        C778   1.403       .  A
C773       Br780   1.928       .  S
C774        C852   1.509   1_554  S
C774       C1607   1.417       .  A
C775        C776   1.424       .  A
C775       C1606   1.418       .  A
C775       Br782   1.926       .  S
C776       C1609   1.410       .  A
C776       Br781   1.916       .  S
C777        C778   1.401       .  A
C777       C1608   1.413       .  A
C778       Br779   1.937       .  S
C783        C788   1.414       .  A
C783       C1616   1.426       .  A
C783       Br790   1.939       .  S
C784        C785   1.428       .  A
C784       C1615   1.427       .  A
C785        C786   1.409       .  A
C785       Br792   1.941       .  S
C786       C1619   1.406       .  A
C786       Br791   1.935       .  S
C787        C788   1.413   1_554  A
C787       C1618   1.405       .  A
C788       Br789   1.937       .  S
C793        C794   1.413       .  A
C793        C798   1.417       .  A
C793       Br800   1.918       .  S
C794        C795   1.401       .  A
C795        C796   1.395       .  A
C795       Br802   1.919       .  S
C796        C797   1.418       .  A
C796       Br801   1.939       .  S
C797        C798   1.415       .  A
C798       Br799   1.930       .  S
C803        C804   1.420       .  A
C803        C808   1.415       .  A
C803       Br810   1.932       .  S
C804        C805   1.403       .  A
C805        C806   1.399       .  A
C805       Br812   1.938       .  S
C806        C807   1.425       .  A
C806       Br811   1.931       .  S
C807        C808   1.409       .  A
C808       Br809   1.930       .  S
C813        C814   1.412       .  A
C813        C818   1.414       .  A
C813       Br820   1.929       .  S
C814        C815   1.414       .  A
C815        C816   1.417       .  A
C815       Br822   1.921       .  S
C816        C817   1.413       .  A
C816       Br821   1.929       .  S
C817        C818   1.418       .  A
C818       Br819   1.930       .  S
C823        C824   1.413       .  A
C823        C828   1.410       .  A
C823       Br830   1.927       .  S
C824        C825   1.416   1_554  A
C825        C826   1.404       .  A
C825      Br1664   1.937       .  S
C826        C827   1.406   1_556  A
C826       Br831   1.922       .  S
C827        C828   1.412       .  A
C828       Br829   1.933       .  S
Br832      C1657   1.937       .  S
O833        C848   1.262       .  A
O833       Al841   1.879       .  S
C834        O844   1.254       .  A
C834        O835   1.274       .  A
C834       C1626   1.487       .  S
O835       Al837   1.976       .  S
O836        C838   1.251       .  A
O836       Al837   1.893       .  S
C838       C1656   1.482       .  S
O839        C849   1.259       .  A
O839       Al841   1.873       .  S
O840        C853   1.269       .  A
O840       Al850   1.936       .  S
Al841       O854   1.863       .  S
Al841       O851   1.889       .  S
Al841       O846   1.783       .  S
O842        C849   1.274       .  A
O842       Al850   1.962       .  S
O843        C852   1.270       .  A
O843       Al850   1.966       .  S
O845        C852   1.254       .  A
O846       Al850   1.801       .  S
O847        C848   1.280       .  A
C848       C1649   1.510       .  S
C849       C1616   1.512       .  S
C853        O854   1.253       .  A
C853       C1639   1.484       .  S
O855        C870   1.263       .  A
O855       Al863   1.882       .  S
C856        O866   1.250       .  A
C856        O857   1.272       .  A
C856       C1586   1.493       .  S
O857       Al859   1.958       .  S
O858        C860   1.252       .  A
O858       Al859   1.895       .  S
Al859       O867   1.878       .  S
Al859       O869   1.997       .  S
Al859       O868   1.772       .  S
C860        O873   1.256       .  A
C860       C1576   1.491       .  S
O861        C871   1.267       .  A
O861       Al863   1.908       .  S
O862        C875   1.271       .  A
O862       Al872   1.937       .  S
Al863       O876   1.887       .  S
Al863       O873   1.916       .  S
Al863       O868   1.776       .  S
O864        C871   1.267       .  A
O864       Al872   1.919       .  S
O865        C874   1.268       .  A
O865       Al872   1.955       .  S
O866       Al872   1.858       .  S
O867        C874   1.258       .  A
O868       Al872   1.782       .  S
O869        C870   1.283       .  A
C870       C1646   1.503       .  S
C871       C1566   1.498       .  S
C874       C1556   1.489       .  S
C875        O876   1.258       .  A
C875       C1596   1.490       .  S
O877        C892   1.256       .  A
O877       Al885   1.883       .  S
C878        O888   1.269       .  A
C878        O879   1.253       .  A
C878       C1526   1.477       .  S
O879       Al881   1.858       .  S
O880        C882   1.267       .  A
O880       Al881   1.922       .  S
Al881       O889   1.940       .  S
Al881       O891   1.924       .  S
Al881       O890   1.795       .  S
C882        O895   1.266       .  A
C882       C1516   1.487       .  S
O883        C893   1.250       .  A
O883       Al885   1.905       .  S
O884        C897   1.282       .  A
O884       Al894   1.979       .  S
Al885       O898   1.872       .  S
Al885       O895   1.891       .  S
Al885       O890   1.787       .  S
O886        C893   1.247       .  A
O886       Al894   1.893       .  S
O887        C896   1.257       .  A
O887       Al894   1.896       .  S
O888       Al894   1.927       .  S
O889        C896   1.264       .  A
O890       Al894   1.769       .  S
O891        C892   1.267       .  A
C892       C1539   1.479       .  S
C893       C1569   1.497       .  S
C896       C1506   1.498       .  S
C897        O898   1.264       .  A
C897       C1549   1.503       .  S
O899        C914   1.263       .  A
O899       Al907   1.919       .  S
C900        O910   1.272       .  A
C900        O901   1.251       .  A
C900       C1599   1.486       .  S
O902        C904   1.275       .  A
O902       Al903   1.954       .  S
Al903       O911   1.973       .  S
Al903       O913   1.917       .  S
Al903       O912   1.781       .  S
C904        O917   1.258       .  A
C904       C1659   1.476       .  S
O905        C915   1.263       .  A
O905       Al907   1.931       .  S
O906        C919   1.279       .  A
O906       Al916   1.986       .  S
Al907       O920   1.883       .  S
Al907       O917   1.879       .  S
Al907       O912   1.778       .  S
O908        C915   1.253       .  A
O908       Al916   1.884       .  S
O909        C918   1.258       .  A
O909       Al916   1.874       .  S
O911        C918   1.271       .  A
O912       Al916   1.771       .  S
O913        C914   1.265       .  A
C914       C1589   1.481       .  S
C915       C1496   1.482       .  S
C918       C1486   1.490       .  S
C919        O920   1.262       .  A
C919       C1546   1.499       .  S
O921        C936   1.263       .  A
O921       Al929   1.876       .  S
C922        O932   1.255       .  A
C922        O923   1.267       .  A
C922       C1536   1.488       .  S
O923       Al925   1.927       .  S
O924        C926   1.257       .  A
O924       Al925   1.921       .  S
C926       C1479   1.487       .  S
O927        C937   1.265       .  A
O927       Al929   1.898       .  S
O928        C941   1.268       .  A
O928       Al938   1.938       .  S
Al929       O942   1.853       .  S
Al929       O939   1.886       .  S
Al929       O934   1.786       .  S
O930        C937   1.270       .  A
O930       Al938   1.934       .  S
O931        C940   1.270       .  A
O931       Al938   1.962       .  S
O933        C940   1.255       .  A
O934       Al938   1.798       .  S
O935        C936   1.276       .  A
C936       C1466   1.498       .  S
C937       C1499   1.503       .  S
C941        O942   1.247       .  A
C941       C1529   1.490       .  S
O943        C958   1.264       .  A
O943       Al951   1.884       .  S
C944        O954   1.254       .  A
C944        O945   1.267       .  A
C944       C1436   1.482       .  S
O945       Al947   1.928       .  S
O946        C948   1.249       .  A
O946       Al947   1.889       .  S
Al947       O955   1.875       .  S
Al947       O957   1.978       .  S
Al947       O956   1.776       .  S
C948        O961   1.255       .  A
C948       C1519   1.485       .  S
O949        C959   1.268       .  A
O949       Al951   1.901       .  S
O950        C963   1.272       .  A
O950       Al960   1.937       .  S
Al951       O964   1.884       .  S
Al951       O961   1.914       .  S
Al951       O956   1.783       .  S
O952        C959   1.264       .  A
O952       Al960   1.912       .  S
O953        C962   1.267       .  A
O953       Al960   1.949       .  S
O954       Al960   1.873       .  S
O955        C962   1.257       .  A
O956       Al960   1.791       .  S
O957        C958   1.278       .  A
C958       C1469   1.498       .  S
C959       C1426   1.487       .  S
C962       C1419   1.485       .  S
C963        O964   1.255       .  A
C963       C1449   1.495       .  S
O965        C980   1.257       .  A
O965       Al973   1.887       .  S
C966        O976   1.272       .  A
C966        O967   1.255       .  A
C966       C1636   1.483       .  S
O967       Al969   1.873       .  S
O968        C970   1.272       .  A
O968       Al969   1.934       .  S
Al969       O977   1.953       .  S
Al969       O979   1.944       .  S
Al969       O978   1.785       .  S
C970        O983   1.264       .  A
C970       C1579   1.474       .  S
O971        C981   1.253       .  A
O971       Al973   1.906       .  S
O972        C985   1.281       .  A
O972       Al982   1.984       .  S
Al973       O986   1.876       .  S
Al973       O983   1.886       .  S
Al973       O978   1.774       .  S
O974        C981   1.251       .  A
O974       Al982   1.895       .  S
O975        C984   1.256       .  A
O975       Al982   1.881       .  S
O976       Al982   1.932       .  S
O977        C984   1.266       .  A
O978       Al982   1.766       .  S
O979        C980   1.271       .  A
C980       C1629   1.490       .  S
C981       C1429   1.486       .  S
C984       C1396   1.488       .  S
C985        O986   1.262       .  A
C985       C1406   1.491       .  S
O987       C1002   1.262       .  A
O987       Al995   1.917       .  S
C988        O998   1.274       .  A
C988        O989   1.252       .  A
C988       C1446   1.498       .  S
O990        C992   1.275       .  A
O990       Al991   1.957       .  S
Al991       O999   1.947       .  S
Al991      O1001   1.899       .  S
Al991      O1000   1.798       .  S
C992       O1005   1.261       .  A
C992       C1476   1.487       .  S
O993       C1003   1.259       .  A
O993       Al995   1.923       .  S
O994       C1007   1.278       .  A
O994      Al1004   1.983       .  S
Al995      O1008   1.872       .  S
Al995      O1005   1.886       .  S
Al995      O1000   1.787       .  S
O996       C1003   1.251       .  A
O996      Al1004   1.886       .  S
O997       C1006   1.254       .  A
O997      Al1004   1.844       .  S
O999       C1006   1.262       .  A
O1000     Al1004   1.782       .  S
O1001      C1002   1.256       .  A
C1002      C1439   1.480       .  S
C1003      C1619   1.488       .  S
C1006      C1386   1.486       .  S
C1007      O1008   1.261       .  A
C1007      C1409   1.503       .  S
O1009      C1024   1.264       .  A
O1009     Al1017   1.901       .  S
C1010      O1020   1.255       .  A
C1010      O1011   1.272       .  A
C1010      C1346   1.494       .  S
O1011     Al1013   1.955       .  S
O1012      C1014   1.252       .  A
O1012     Al1013   1.891       .  S
Al1013     O1021   1.877       .  S
Al1013     O1023   1.973       .  S
Al1013     O1022   1.776       .  S
C1014      O1027   1.255       .  A
C1014      C1376   1.477       .  S
O1015      C1025   1.268   1_455  A
O1015     Al1017   1.919       .  S
O1016      C1029   1.272       .  A
O1016     Al1026   1.926       .  S
Al1017     O1030   1.878       .  S
Al1017     O1027   1.894       .  S
Al1017     O1022   1.774       .  S
O1018      C1025   1.262       .  A
O1018     Al1026   1.913   1_655  S
O1019      C1028   1.265       .  A
O1019     Al1026   1.950       .  S
O1020     Al1026   1.869       .  S
O1021      C1028   1.255       .  A
O1022     Al1026   1.787       .  S
O1023      C1024   1.277       .  A
C1024      C1369   1.502       .  S
C1025      C1336   1.485       .  S
C1028      C1416   1.485       .  S
C1029      O1030   1.256       .  A
C1029      C1359   1.487       .  S
O1031      C1046   1.267       .  A
O1031     Al1039   1.894       .  S
C1032      O1042   1.248       .  A
C1032      O1033   1.273       .  A
C1032      C1319   1.493       .  S
O1034      C1036   1.255       .  A
O1034     Al1035   1.904       .  S
Al1035     O1043   1.889       .  S
Al1035     O1045   1.981       .  S
Al1035     O1044   1.779       .  S
C1036      O1049   1.256       .  A
C1036      C1306   1.484       .  S
O1037      C1047   1.258       .  A
O1037     Al1039   1.870   1_565  S
O1038      C1051   1.263   1_545  A
O1038     Al1048   1.923       .  S
Al1039     O1052   1.907       .  S
Al1039     O1049   1.906       .  S
Al1039     O1044   1.785       .  S
O1040      C1047   1.274       .  A
O1040     Al1048   1.953   1_565  S
O1041      C1050   1.271       .  A
O1041     Al1048   1.962       .  S
O1043      C1050   1.260       .  A
O1044     Al1048   1.789       .  S
O1045      C1046   1.278       .  A
C1046      C1366   1.508       .  S
C1047      C1296   1.470       .  S
C1050      C1456   1.497       .  S
C1051      O1052   1.258   1_565  A
C1051      C1326   1.481       .  S
O1053      C1068   1.256       .  A
O1053     Al1061   1.887       .  S
C1054      O1064   1.271       .  A
C1054      O1055   1.253       .  A
C1054      C1276   1.477       .  S
Al1057     O1065   1.944       .  S
Al1057     O1067   1.928       .  S
Al1057     O1066   1.790       .  S
C1058      O1071   1.252   1_655  A
C1058      C1256   1.502       .  S
O1059     Al1061   1.898       .  S
O1060      C1073   1.280       .  A
Al1061     O1074   1.884       .  S
Al1061     O1071   1.879       .  S
Al1061     O1066   1.783       .  S
O1062      C1069   1.248       .  A
O1062     Al1070   1.878       .  S
O1063     Al1070   1.876       .  S
O1064     Al1070   1.960       .  S
O1065      C1072   1.267       .  A
O1067      C1068   1.267       .  A
C1068      C1289   1.481       .  S
C1069      C1299   1.479       .  S
C1073      O1074   1.265       .  A
C1073      C1269   1.507       .  S
O1075      C1090   1.253       .  A
O1075     Al1083   1.878       .  S
C1076      O1086   1.271       .  A
C1076      O1077   1.253       .  A
C1076      C1329   1.509       .  S
O1077     Al1079   1.874       .  S
O1078      C1080   1.260       .  A
O1078     Al1079   1.901       .  S
Al1079     O1087   1.930       .  S
Al1079     O1089   1.937       .  S
Al1079     O1088   1.790       .  S
C1080      O1093   1.265       .  A
C1080      C1379   1.486   1_565  S
O1081      C1091   1.253       .  A
O1081     Al1083   1.894       .  S
O1082      C1095   1.277       .  A
O1082     Al1092   1.971       .  S
Al1083     O1096   1.896       .  S
Al1083     O1093   1.892       .  S
Al1083     O1088   1.780       .  S
O1084      C1091   1.259       .  A
O1084     Al1092   1.914       .  S
O1085      C1094   1.258       .  A
O1085     Al1092   1.880       .  S
O1086     Al1092   1.958       .  S
O1087      C1094   1.262       .  A
O1088     Al1092   1.785       .  S
O1089      C1090   1.269       .  A
C1090      C1316   1.487       .  S
C1091      C1246   1.492       .  S
C1094      C1399   1.479       .  S
C1095      O1096   1.265       .  A
C1095      C1266   1.501       .  S
O1097      C1112   1.262       .  A
O1097     Al1105   1.879       .  S
C1098      O1108   1.255       .  A
C1098      O1099   1.272       .  A
C1098      C1286   1.482       .  S
O1099     Al1101   1.938       .  S
O1100      C1102   1.250       .  A
O1100     Al1101   1.882       .  S
Al1101     O1109   1.885       .  S
Al1101     O1111   1.972       .  S
Al1101     O1110   1.770       .  S
C1102      O1115   1.256       .  A
C1102      C1236   1.472       .  S
O1103      C1113   1.260   1_655  A
O1103     Al1105   1.888       .  S
O1104      C1117   1.269       .  A
O1104     Al1114   1.932       .  S
Al1105     O1118   1.905       .  S
Al1105     O1115   1.904       .  S
Al1105     O1110   1.774       .  S
O1106      C1113   1.273       .  A
O1106     Al1114   1.957   1_455  S
O1107      C1116   1.268       .  A
O1107     Al1114   1.968       .  S
O1108     Al1114   1.860       .  S
O1109      C1116   1.257       .  A
O1110     Al1114   1.783       .  S
O1111      C1112   1.276       .  A
C1112      C1226   1.489       .  S
C1113      C1249   1.477       .  S
C1116      C1559   1.494       .  S
C1117      O1118   1.261       .  A
C1117      C1279   1.497   1_655  S
O1119      C1134   1.266       .  A
O1119     Al1127   1.885       .  S
C1120      O1130   1.259   1_556  A
C1120      O1121   1.270       .  A
C1120      C1209   1.500       .  S
O1122      C1124   1.243       .  A
O1122     Al1123   1.881       .  S
Al1123     O1131   1.844       .  S
Al1123     O1133   1.966       .  S
Al1123     O1132   1.780       .  S
C1124      O1137   1.253       .  A
C1124      C1259   1.483       .  S
O1125      C1135   1.266       .  A
O1125     Al1127   1.888       .  S
O1126      C1139   1.266       .  A
O1126     Al1136   1.946       .  S
Al1127     O1140   1.893       .  S
Al1127     O1137   1.905       .  S
Al1127     O1132   1.785       .  S
O1128      C1135   1.276       .  A
O1128     Al1136   1.956       .  S
O1129      C1138   1.264       .  A
O1129     Al1136   1.955       .  S
O1131      C1138   1.252       .  A
O1132     Al1136   1.797       .  S
O1133      C1134   1.278       .  A
C1134      C1229   1.493       .  S
C1135      C1199   1.483   1_565  S
C1138      C1609   1.491       .  S
C1139      O1140   1.253       .  A
C1139      C1216   1.500       .  S
O1141      C1156   1.262   1_655  A
O1141     Al1149   1.916       .  S
C1142      O1152   1.268       .  A
C1142      O1143   1.250       .  A
C1142      C1356   1.485       .  S
Al1145     O1153   1.961       .  S
Al1145     O1155   1.915       .  S
Al1145     O1154   1.789       .  S
C1146      O1159   1.262   1_455  A
C1146      C1309   1.489       .  S
O1147     Al1149   1.904       .  S
O1148      C1161   1.276       .  A
Al1149     O1162   1.902       .  S
Al1149     O1159   1.898       .  S
Al1149     O1154   1.789       .  S
O1150      C1157   1.257       .  A
O1150     Al1158   1.909       .  S
O1151     Al1158   1.890       .  S
O1152     Al1158   1.940       .  S
O1153      C1160   1.268       .  A
O1155      C1156   1.265   1_655  A
C1156      C1349   1.481       .  S
C1157      C1196   1.479       .  S
C1161      O1162   1.268       .  A
C1161      C1189   1.512       .  S
O1163      C1178   1.260   1_545  A
O1163     Al1171   1.896       .  S
C1164      O1174   1.266       .  A
C1164      O1165   1.266       .  A
C1164      C1219   1.485       .  S
O1165     Al1167   1.924       .  S
O1166      C1168   1.258       .  A
O1166     Al1167   1.895   1_565  S
Al1167     O1175   1.926       .  S
Al1167     O1177   1.939   1_545  S
Al1167     O1176   1.804       .  S
C1168      O1181   1.251       .  A
C1168      C1239   1.471       .  S
O1169      C1179   1.257       .  A
O1169     Al1171   1.915       .  S
O1170      C1183   1.274       .  A
O1170     Al1180   1.948       .  S
Al1171     O1184   1.892       .  S
Al1171     O1181   1.874   1_545  S
Al1171     O1176   1.795       .  S
O1172      C1179   1.252       .  A
O1172     Al1180   1.883       .  S
O1173      C1182   1.253       .  A
O1173     Al1180   1.879       .  S
O1174     Al1180   1.921       .  S
O1175      C1182   1.262       .  A
O1176     Al1180   1.798       .  S
O1177      C1178   1.267       .  A
C1178      C1206   1.489       .  S
C1179      C1339   1.493       .  S
C1182      C1509   1.476       .  S
C1183      O1184   1.261       .  A
C1183      C1186   1.486       .  S
C1185      C1186   1.407       .  A
C1185      C1190   1.419       .  A
C1185     Br1192   1.925       .  S
C1186      C1187   1.405       .  A
C1187      C1188   1.411       .  A
C1187     Br1194   1.929       .  S
C1188      C1189   1.421       .  A
C1188     Br1193   1.925       .  S
C1189      C1190   1.424       .  A
C1190     Br1191   1.931       .  S
C1195      C1196   1.405       .  A
C1195      C1200   1.410       .  A
C1195     Br1202   1.928       .  S
C1197     Br1204   1.933       .  S
C1198      C1199   1.411       .  A
C1199      C1200   1.415       .  A
C1200     Br1201   1.929       .  S
C1205      C1206   1.404       .  A
C1205      C1210   1.415       .  A
C1205     Br1212   1.925   1_565  S
C1206      C1207   1.412       .  A
C1207      C1208   1.411       .  A
C1207     Br1214   1.927       .  S
C1208      C1209   1.415       .  A
C1208     Br1213   1.930       .  S
C1209      C1210   1.421       .  A
C1210     Br1211   1.926       .  S
C1215      C1216   1.420   1_545  A
C1215      C1220   1.419       .  A
C1215     Br1222   1.928       .  S
C1216      C1217   1.424       .  A
C1217      C1218   1.403   1_565  A
C1217     Br1224   1.937       .  S
C1218      C1219   1.399       .  A
C1218     Br1223   1.922   1_545  S
C1219      C1220   1.407       .  A
C1220     Br1221   1.924       .  S
C1225      C1226   1.410       .  A
C1225      C1230   1.411       .  A
C1225     Br1232   1.930       .  S
C1226      C1227   1.412       .  A
C1227      C1228   1.412       .  A
C1227     Br1234   1.923       .  S
C1228      C1229   1.413       .  A
C1228     Br1233   1.932       .  S
C1229      C1230   1.412       .  A
C1230     Br1231   1.921       .  S
C1235      C1236   1.414       .  A
C1235      C1240   1.404       .  A
C1235     Br1242   1.934       .  S
C1236      C1237   1.410       .  A
C1237      C1238   1.403       .  A
C1237     Br1244   1.934       .  S
C1238      C1239   1.413       .  A
C1238     Br1243   1.933       .  S
C1239      C1240   1.409       .  A
C1240     Br1241   1.935       .  S
C1245      C1246   1.421       .  A
C1245      C1250   1.406       .  A
C1245     Br1252   1.937       .  S
C1246      C1247   1.417       .  A
C1247      C1248   1.412       .  A
C1247     Br1254   1.928       .  S
C1248      C1249   1.407       .  A
C1248     Br1253   1.930       .  S
C1249      C1250   1.405       .  A
C1250     Br1251   1.925       .  S
C1255      C1256   1.425       .  A
C1255      C1260   1.406       .  A
C1255     Br1262   1.944       .  S
C1257      C1258   1.408       .  A
C1257     Br1264   1.943   1_655  S
C1258      C1259   1.405       .  A
C1258     Br1263   1.939       .  S
C1260     Br1261   1.937       .  S
C1265      C1266   1.406       .  A
C1265      C1270   1.414       .  A
C1265     Br1272   1.931       .  S
C1266      C1267   1.412       .  A
C1267      C1268   1.417       .  A
C1267     Br1274   1.921       .  S
C1268      C1269   1.417       .  A
C1268     Br1273   1.930       .  S
C1269      C1270   1.421       .  A
C1270     Br1271   1.922       .  S
C1275      C1276   1.409       .  A
C1275      C1280   1.416       .  A
C1275     Br1282   1.924       .  S
C1276      C1277   1.402       .  A
C1277      C1278   1.399       .  A
C1277     Br1284   1.924       .  S
C1278      C1279   1.421       .  A
C1278     Br1283   1.940   1_455  S
C1279      C1280   1.421       .  A
C1280     Br1281   1.929       .  S
C1285      C1286   1.421   1_455  A
C1285      C1290   1.410       .  A
C1285     Br1292   1.932       .  S
C1286      C1287   1.406       .  A
C1287      C1288   1.401       .  A
C1287     Br1294   1.936       .  S
C1288      C1289   1.417   1_655  A
C1288     Br1293   1.922       .  S
C1289      C1290   1.403       .  A
C1290     Br1291   1.927       .  S
C1295      C1296   1.408       .  A
C1295      C1300   1.407       .  A
C1295     Br1302   1.933       .  S
C1296      C1297   1.405       .  A
C1298     Br1303   1.938       .  S
C1299      C1300   1.416       .  A
C1300     Br1301   1.931       .  S
C1305      C1310   1.414       .  A
C1305     Br1312   1.928       .  S
C1306      C1307   1.408       .  A
C1307      C1308   1.403       .  A
C1307     Br1314   1.936       .  S
C1308     Br1313   1.913       .  S
C1309      C1310   1.416       .  A
C1310     Br1311   1.930       .  S
C1315      C1316   1.404       .  A
C1315      C1320   1.413       .  A
C1315     Br1322   1.930       .  S
C1316      C1317   1.421   1_565  A
C1317      C1318   1.405       .  A
C1317     Br1324   1.925       .  S
C1318      C1319   1.404       .  A
C1318     Br1323   1.933       .  S
C1319      C1320   1.430   1_545  A
C1320     Br1321   1.938       .  S
C1325      C1326   1.392       .  A
C1325      C1330   1.409       .  A
C1325     Br1332   1.925   1_565  S
C1326      C1327   1.405       .  A
C1327      C1328   1.413       .  A
C1327     Br1334   1.926       .  S
C1328      C1329   1.422       .  A
C1328     Br1333   1.931       .  S
C1329      C1330   1.435       .  A
C1330     Br1331   1.936   1_565  S
C1335      C1336   1.409       .  A
C1335      C1340   1.413       .  A
C1335     Br1342   1.932   1_655  S
C1336      C1337   1.411       .  A
C1337      C1338   1.404       .  A
C1337     Br1344   1.936       .  S
C1338      C1339   1.419       .  A
C1338     Br1343   1.938       .  S
C1339      C1340   1.419       .  A
C1340     Br1341   1.932       .  S
C1345      C1346   1.415       .  A
C1345      C1350   1.411       .  A
C1345     Br1352   1.931       .  S
C1346      C1347   1.425       .  A
C1347      C1348   1.408       .  A
C1347     Br1354   1.936   1_455  S
C1348      C1349   1.401       .  A
C1348     Br1353   1.926   1_455  S
C1349      C1350   1.411       .  A
C1350     Br1351   1.928       .  S
C1355      C1356   1.403       .  A
C1355      C1360   1.405       .  A
C1355     Br1362   1.933       .  S
C1356      C1357   1.423       .  A
C1357      C1358   1.408   1_655  A
C1357     Br1364   1.939   1_655  S
C1358      C1359   1.408       .  A
C1358     Br1363   1.933       .  S
C1359      C1360   1.427   1_455  A
C1360     Br1361   1.938       .  S
C1365      C1366   1.411       .  A
C1365      C1370   1.411       .  A
C1365     Br1372   1.918       .  S
C1366      C1367   1.415       .  A
C1367      C1368   1.421       .  A
C1367     Br1374   1.929       .  S
C1368      C1369   1.416       .  A
C1368     Br1373   1.924       .  S
C1369      C1370   1.411       .  A
C1370     Br1371   1.921       .  S
C1375      C1376   1.409       .  A
C1375      C1380   1.399       .  A
C1375     Br1382   1.933       .  S
C1376      C1377   1.415       .  A
C1377      C1378   1.408       .  A
C1377     Br1384   1.939       .  S
C1378      C1379   1.422       .  A
C1378     Br1383   1.943       .  S
C1379      C1380   1.410       .  A
C1380     Br1381   1.931   1_545  S
C1385      C1386   1.407       .  A
C1386      C1387   1.396       .  A
C1387      C1388   1.399       .  A
C1387     Br1394   1.939       .  S
C1388      C1389   1.429       .  A
C1388     Br1393   1.925       .  S
C1390     Br1391   1.930       .  S
C1395      C1396   1.419       .  A
C1395      C1400   1.405       .  A
C1395     Br1402   1.907       .  S
C1396      C1397   1.403       .  A
C1397      C1398   1.413       .  A
C1397     Br1404   1.928       .  S
C1398      C1399   1.415       .  A
C1398     Br1403   1.914       .  S
C1399      C1400   1.397       .  A
C1400     Br1401   1.934       .  S
C1405      C1406   1.414       .  A
C1405      C1410   1.418       .  A
C1405     Br1412   1.930       .  S
C1406      C1407   1.409       .  A
C1407      C1408   1.409       .  A
C1407     Br1414   1.925       .  S
C1408      C1409   1.416       .  A
C1408     Br1413   1.927       .  S
C1409      C1410   1.415       .  A
C1410     Br1411   1.923       .  S
C1415      C1416   1.417       .  A
C1415      C1420   1.409       .  A
C1415     Br1422   1.909       .  S
C1416      C1417   1.403       .  A
C1417      C1418   1.409       .  A
C1417     Br1424   1.933       .  S
C1418      C1419   1.419       .  A
C1418     Br1423   1.914       .  S
C1419      C1420   1.400       .  A
C1420     Br1421   1.928       .  S
C1425      C1426   1.413       .  A
C1425      C1430   1.405       .  A
C1425     Br1432   1.935       .  S
C1426      C1427   1.420       .  A
C1427      C1428   1.409       .  A
C1427     Br1434   1.941       .  S
C1428      C1429   1.417       .  A
C1428     Br1433   1.940       .  S
C1429      C1430   1.415       .  A
C1430     Br1431   1.936       .  S
C1435      C1436   1.420       .  A
C1435      C1440   1.411       .  A
C1435     Br1442   1.934       .  S
C1436      C1437   1.409       .  A
C1437      C1438   1.401       .  A
C1437     Br1444   1.929       .  S
C1438      C1439   1.407       .  A
C1438     Br1443   1.922       .  S
C1439      C1440   1.408       .  A
C1440     Br1441   1.931       .  S
C1445      C1446   1.408       .  A
C1445      C1450   1.409       .  A
C1445     Br1452   1.933       .  S
C1446      C1447   1.427       .  A
C1447      C1448   1.415       .  A
C1447     Br1454   1.931       .  S
C1448      C1449   1.407       .  A
C1448     Br1453   1.931       .  S
C1449      C1450   1.424       .  A
C1450     Br1451   1.937       .  S
C1455      C1456   1.404       .  A
C1455      C1460   1.417       .  A
C1455     Br1462   1.930       .  S
C1457      C1458   1.418       .  A
C1457     Br1464   1.910       .  S
C1458     Br1463   1.929       .  S
C1459      C1460   1.420       .  A
C1460     Br1461   1.913       .  S
C1465      C1466   1.412       .  A
C1465      C1470   1.412       .  A
C1465     Br1472   1.932       .  S
C1466      C1467   1.409       .  A
C1467      C1468   1.415       .  A
C1467     Br1474   1.928       .  S
C1468      C1469   1.416       .  A
C1468     Br1473   1.926       .  S
C1469      C1470   1.414       .  A
C1470     Br1471   1.921       .  S
C1475      C1476   1.417       .  A
C1475      C1480   1.414       .  A
C1475     Br1482   1.934       .  S
C1476      C1477   1.408       .  A
C1477      C1478   1.404       .  A
C1477     Br1484   1.923       .  S
C1478      C1479   1.413       .  A
C1478     Br1483   1.930       .  S
C1479      C1480   1.411       .  A
C1480     Br1481   1.925       .  S
C1485      C1486   1.400       .  A
C1485      C1490   1.410       .  A
C1485     Br1492   1.930       .  S
C1486      C1487   1.418       .  A
C1488     Br1493   1.926       .  S
C1489      C1490   1.418       .  A
C1490     Br1491   1.907       .  S
C1495      C1496   1.408       .  A
C1496      C1497   1.416       .  A
C1497      C1498   1.410       .  A
C1497     Br1504   1.939       .  S
C1498     Br1503   1.939       .  S
C1499      C1500   1.424       .  A
C1500     Br1501   1.933   1_556  S
C1505      C1506   1.411       .  A
C1505      C1510   1.419       .  A
C1505     Br1512   1.924       .  S
C1506      C1507   1.424       .  A
C1507      C1508   1.404       .  A
C1507     Br1514   1.914       .  S
C1508      C1509   1.393       .  A
C1508     Br1513   1.931       .  S
C1509      C1510   1.411       .  A
C1510     Br1511   1.923       .  S
C1515      C1516   1.414       .  A
C1515      C1520   1.407       .  A
C1515     Br1522   1.935       .  S
C1516      C1517   1.415       .  A
C1517      C1518   1.405       .  A
C1517     Br1524   1.941       .  S
C1518      C1519   1.419       .  A
C1518     Br1523   1.940       .  S
C1519      C1520   1.415       .  A
C1520     Br1521   1.934       .  S
C1525      C1526   1.402       .  A
C1525      C1530   1.403       .  A
C1525     Br1532   1.937       .  S
C1526      C1527   1.416       .  A
C1527      C1528   1.412       .  A
C1527     Br1534   1.932       .  S
C1528      C1529   1.410       .  A
C1528     Br1533   1.929       .  S
C1529      C1530   1.430       .  A
C1530     Br1531   1.940       .  S
C1535      C1536   1.410       .  A
C1535      C1540   1.402       .  A
C1535     Br1542   1.936       .  S
C1536      C1537   1.426       .  A
C1537      C1538   1.410       .  A
C1537     Br1544   1.936       .  S
C1538      C1539   1.405       .  A
C1538     Br1543   1.932       .  S
C1539      C1540   1.417       .  A
C1540     Br1541   1.930       .  S
C1545      C1546   1.412       .  A
C1545      C1550   1.415       .  A
C1545     Br1552   1.923       .  S
C1546      C1547   1.410       .  A
C1547      C1548   1.413       .  A
C1547     Br1554   1.925       .  S
C1548      C1549   1.421       .  A
C1548     Br1553   1.928       .  S
C1549      C1550   1.416       .  A
C1550     Br1551   1.929       .  S
C1555      C1556   1.399       .  A
C1555      C1560   1.406       .  A
C1555     Br1562   1.934       .  S
C1556      C1557   1.422       .  A
C1557      C1558   1.416       .  A
C1557     Br1564   1.914       .  S
C1558      C1559   1.402       .  A
C1558     Br1563   1.929       .  S
C1559      C1560   1.416       .  A
C1560     Br1561   1.904       .  S
C1565      C1566   1.419       .  A
C1565      C1570   1.408       .  A
C1565     Br1572   1.942       .  S
C1566      C1567   1.416       .  A
C1567      C1568   1.412       .  A
C1567     Br1574   1.936       .  S
C1568      C1569   1.419       .  A
C1568     Br1573   1.937       .  S
C1569      C1570   1.421       .  A
C1570     Br1571   1.940       .  S
C1575      C1576   1.419       .  A
C1575      C1580   1.406       .  A
C1575     Br1582   1.934       .  S
C1576      C1577   1.422       .  A
C1577      C1578   1.404       .  A
C1577     Br1584   1.934       .  S
C1578      C1579   1.407       .  A
C1578     Br1583   1.936       .  S
C1579      C1580   1.408       .  A
C1580     Br1581   1.934       .  S
C1585      C1586   1.411       .  A
C1585      C1590   1.407       .  A
C1585     Br1592   1.929       .  S
C1586      C1587   1.427       .  A
C1587      C1588   1.409       .  A
C1587     Br1594   1.936       .  S
C1588      C1589   1.400       .  A
C1588     Br1593   1.926       .  S
C1589      C1590   1.409       .  A
C1590     Br1591   1.921       .  S
C1595      C1596   1.422       .  A
C1595      C1600   1.403       .  A
C1595     Br1602   1.929       .  S
C1596      C1597   1.409       .  A
C1597      C1598   1.415       .  A
C1597     Br1604   1.931       .  S
C1598      C1599   1.423       .  A
C1598     Br1603   1.935       .  S
C1599      C1600   1.403       .  A
C1600     Br1601   1.934       .  S
C1605      C1606   1.428       .  A
C1605      C1610   1.401       .  A
C1605     Br1612   1.930       .  S
C1607      C1608   1.425       .  A
C1607     Br1614   1.926   1_554  S
C1608     Br1613   1.917       .  S
C1609      C1610   1.396       .  A
C1610     Br1611   1.931       .  S
C1615      C1620   1.413       .  A
C1615     Br1622   1.942       .  S
C1616      C1617   1.432   1_556  A
C1617      C1618   1.409       .  A
C1617     Br1624   1.943       .  S
C1618     Br1623   1.937       .  S
C1619      C1620   1.413       .  A
C1620     Br1621   1.936       .  S
C1625      C1626   1.414       .  A
C1625      C1630   1.419       .  A
C1625     Br1632   1.915       .  S
C1626      C1627   1.405       .  A
C1627      C1628   1.399       .  A
C1627     Br1634   1.923       .  S
C1628      C1629   1.417       .  A
C1628     Br1633   1.937       .  S
C1629      C1630   1.414       .  A
C1630     Br1631   1.929       .  S
C1635      C1636   1.422       .  A
C1635      C1640   1.413       .  A
C1635     Br1642   1.931       .  S
C1636      C1637   1.404       .  A
C1637      C1638   1.399       .  A
C1637     Br1644   1.935       .  S
C1638      C1639   1.419       .  A
C1638     Br1643   1.929       .  S
C1639      C1640   1.406       .  A
C1640     Br1641   1.929       .  S
C1645      C1646   1.411       .  A
C1645      C1650   1.417       .  A
C1645     Br1652   1.929       .  S
C1646      C1647   1.415       .  A
C1647      C1648   1.419       .  A
C1647     Br1654   1.928       .  S
C1648      C1649   1.416       .  A
C1648     Br1653   1.929       .  S
C1649      C1650   1.420       .  A
C1650     Br1651   1.930       .  S
C1655      C1656   1.415       .  A
C1655      C1660   1.408       .  A
C1655     Br1662   1.930       .  S
C1656      C1657   1.418       .  A
C1657      C1658   1.404       .  A
C1658      C1659   1.404       .  A
C1658     Br1663   1.922       .  S
C1659      C1660   1.408       .  A
C1660     Br1661   1.931       .  S
