geometry optimzed in LAMMPS
_audit_creation_date              2020-12-01 
_audit_creation_method            'lammps2cif' 
_symmetry_space_group_name_H-M    'P1' 
_symmetry_Int_Tables_number       1 
_symmetry_cell_setting            triclinic 
loop_ 
_symmetry_equiv_pos_as_xyz 
  x,y,z 
_cell_length_a                    26.60521065 
_cell_length_b                    26.715263150643903 
_cell_length_c                    36.960617602738026 
_cell_angle_alpha                 89.8350664342274 
_cell_angle_beta                  89.78033548540758 
_cell_angle_gamma                 90.3073742077339 
loop_ 
_atom_site_label 
_atom_site_type_symbol 
_atom_site_fract_x 
_atom_site_fract_y 
_atom_site_fract_z 
_atom_site_charge 
O1          O  0.03783410  0.24492174  0.88649348    -0.81000
C2          C  0.86477232  0.13122927  0.90847526     0.98400
O3          O  0.86393546  0.17397951  0.89318093    -0.70100
O4          O  0.91037828  0.24507855  0.92693940    -0.73700
Al5        Al  0.91812223  0.21910563  0.87949520     1.49000
C6          C  0.94005628  0.25296139  0.95266318     0.93600
O7          O  0.00462082  0.14240721  0.95395726    -0.79900
O8          O  0.02100490  0.11333640  0.84927720    -0.73500
Al9        Al  0.01861233  0.19256137  0.91815257     1.90100
O10         O  0.99514607  0.08166532  0.91553144    -0.72500
O11         O  0.92336210  0.12129202  0.83502558    -0.72400
O12         O  0.90167553  0.10227166  0.90468668    -0.78000
O13         O  0.91528354  0.20149499  0.82901230    -0.76200
O14         O  0.96590287  0.17494492  0.89117045    -1.12400
O15         O  0.96520067  0.27133738  0.86574095    -0.71600
C16         C  0.01242634  0.27662105  0.86904006     0.99200
C17         C  0.00043249  0.09635190  0.94736366     0.95600
Al18       Al  0.96044016  0.11084018  0.87706862     1.55600
O19         O  0.98460347  0.23771060  0.95027188    -0.76200
C20         C  0.91038913  0.15803208  0.81639231     0.99700
C21         C  0.06278951  0.12266036  0.86430598     0.94600
O22         O  0.06496571  0.15029710  0.89219376    -0.81500
O23         O  0.76707911  0.98347038  0.60471361    -0.81000
C24         C  0.88446462  0.15568243  0.58115621     0.98400
O25         O  0.84074609  0.15673530  0.59505156    -0.70100
O26         O  0.77225045  0.11100326  0.55869830    -0.73700
Al27       Al  0.79389612  0.10321234  0.60693607     1.49000
C28         C  0.76069847  0.07986041  0.53477013     0.93600
O29         O  0.86637604  0.01289320  0.53421517    -0.79900
O30         O  0.89919935  0.99745396  0.63785712    -0.73500
Al31       Al  0.81762074  0.00093267  0.57103958     1.90100
O32         O  0.92963785  0.02556694  0.57101092    -0.72500
O33         O  0.89000472  0.09399518  0.65445638    -0.72400
O34         O  0.91172759  0.11770719  0.58474843    -0.78000
O35         O  0.80883787  0.10503872  0.65724574    -0.76200
O36         O  0.83729411  0.05416761  0.59672718    -1.12400
O37         O  0.73896515  0.05790053  0.61948620    -0.71600
C38         C  0.73433612  0.01051247  0.61969622     0.99200
C39         C  0.91285289  0.01629113  0.54009112     0.95600
Al40       Al  0.90160261  0.05861471  0.61103767     1.55600
O41         O  0.77062517  0.03430527  0.53967522    -0.76200
C42         C  0.85153072  0.10704219  0.67159513     0.99700
C43         C  0.88952866  0.95615476  0.62261075     0.94600
O44         O  0.86064209  0.95444524  0.59550719    -0.81500
O45         O  0.95324341  0.86206680  0.11479746    -0.81000
C46         C  0.15885990  0.87623753  0.08148463     0.98400
O47         O  0.13789731  0.90451689  0.10434797    -0.70100
O48         O  0.06154445  0.93773055  0.06937901    -0.73700
Al49       Al  0.06683266  0.90851777  0.11494700     1.49000
C50         C  0.02333835  0.93665926  0.04967125     0.93600
O51         O  0.02561751  0.81199383  0.03344984    -0.79900
O52         O  0.04630237  0.75566964  0.13086052    -0.73500
Al53       Al  0.99324831  0.83720785  0.07585537     1.90100
O54         O  0.08065801  0.76389606  0.06026727    -0.72500
O55         O  0.11964691  0.82005433  0.15209092    -0.72400
O56         O  0.14467857  0.83139915  0.07881572    -0.78000
O57         O  0.07391537  0.88647889  0.16291294    -0.76200
O58         O  0.05102278  0.84738970  0.09898620    -1.12400
O59         O  0.99930086  0.92781409  0.12706942    -0.71600
C60         C  0.95699374  0.90607506  0.12701207     0.99200
C61         C  0.05837565  0.77811642  0.03193900     0.95600
Al62       Al  0.09430768  0.79705819  0.10534631     1.55600
O63         O  0.99194059  0.90112211  0.05202085    -0.76200
C64         C  0.10412325  0.85361430  0.17354135     0.99700
C65         C  0.00295903  0.74453023  0.11902264     0.94600
O66         O  0.98234843  0.77149414  0.09514104    -0.81500
O67         O  0.15064033  0.06065562  0.37680128    -0.81000
C68         C  0.13642121  0.85529147  0.40860459     0.98400
O69         O  0.10733818  0.87733327  0.38695447    -0.70100
O70         O  0.07666453  0.95204209  0.42459996    -0.73700
Al71       Al  0.10305619  0.94813626  0.37787757     1.49000
C72         C  0.07756025  0.99037968  0.44403793     0.93600
O73         O  0.20083187  0.98883237  0.45777256    -0.79900
O74         O  0.25693595  0.96943286  0.36020820    -0.73500
Al75       Al  0.17547210  0.02132384  0.41577732     1.90100
O76         O  0.24854184  0.93356702  0.43055927    -0.72500
O77         O  0.19137139  0.89758549  0.33814473    -0.72400
O78         O  0.18141907  0.86956797  0.41107901    -0.78000
O79         O  0.12272655  0.94131918  0.32938424    -0.76200
O80         O  0.16498275  0.96382393  0.39253883    -1.12400
O81         O  0.08305698  0.01598696  0.36677070    -0.71600
C82         C  0.10590068  0.05766511  0.36563976     0.99200
C83         C  0.23447037  0.95580959  0.45901260     0.95600
Al84       Al  0.21540107  0.92103474  0.38518716     1.55600
O85         O  0.11141397  0.02325289  0.44006430    -0.76200
C86         C  0.15513868  0.91090625  0.31805674     0.99700
C87         C  0.26817957  0.01229542  0.37253816     0.94600
O88         O  0.24123403  0.03230779  0.39665150    -0.81500
O89         O  0.27937390  0.03819861  0.88672061    -0.81000
C90         C  0.39106128  0.86376865  0.90742319     0.98400
O91         O  0.34624005  0.86303580  0.89543445    -0.70100
O92         O  0.28146753  0.91185300  0.93316456    -0.73700
Al93       Al  0.30040792  0.91761670  0.88389558     1.49000
C94         C  0.27387047  0.94405124  0.95714362     0.93600
O95         O  0.38371993  0.00601296  0.95103849    -0.79900
O96         O  0.40654869  0.01961606  0.84546253    -0.73500
Al97       Al  0.33202914  0.01948639  0.91728620     1.90100
O98         O  0.44233689  0.99289537  0.91062787    -0.72500
O99         O  0.39286885  0.92121060  0.83195603    -0.72400
O100        O  0.41948620  0.90055299  0.90084023    -0.78000
O101        O  0.31135830  0.91322109  0.83287202    -0.76200
O102        O  0.34665639  0.96540816  0.89109341    -1.12400
O103        O  0.24676218  0.96503196  0.87265425    -0.71600
C104        C  0.24443696  0.01266643  0.87292858     0.99200
C105        C  0.42942137  0.00162486  0.94260470     0.95600
Al106      Al  0.40930342  0.95879155  0.87343060     1.55600
O107        O  0.28677400  0.98874458  0.95147763    -0.76200
C108        C  0.35281526  0.90805856  0.81693208     0.99700
C109        C  0.39941951  0.06144489  0.86088743     0.94600
O110        O  0.37404825  0.06391158  0.88983549    -0.81500
O111        O  0.53036497  0.78771957  0.60285569    -0.81000
C112        C  0.35369947  0.89676233  0.58091123     0.98400
O113        O  0.35364344  0.85258924  0.59391604    -0.70100
O114        O  0.40397273  0.79086301  0.55421114    -0.73700
Al115      Al  0.40919835  0.80737056  0.60406137     1.49000
C116        C  0.43716858  0.78351293  0.53056150     0.93600
O117        O  0.49898023  0.89136993  0.53767968    -0.79900
O118        O  0.50769516  0.91406213  0.64339279    -0.73500
Al119      Al  0.51186992  0.84011176  0.57182333     1.90100
O120        O  0.48361857  0.94964590  0.57744516    -0.72500
O121        O  0.40926740  0.89874200  0.65533712    -0.72400
O122        O  0.39061640  0.92551530  0.58604644    -0.78000
O123        O  0.40574071  0.81711456  0.65536877    -0.76200
O124        O  0.45656148  0.85401325  0.59713971    -1.12400
O125        O  0.45679569  0.75357991  0.61425761    -0.71600
C126        C  0.50457456  0.75190134  0.61532404     0.99200
C127        C  0.49374383  0.93683871  0.54564104     0.95600
Al128      Al  0.44818582  0.91619329  0.61434545     1.55600
O129        O  0.48218082  0.79494015  0.53724647    -0.76200
C130        C  0.39880313  0.85831268  0.67103086     0.99700
C131        C  0.55050132  0.90720107  0.62907372     0.94600
O132        O  0.55480453  0.88240776  0.60007270    -0.81500
O133        O  0.66083368  0.96364738  0.11033260    -0.81000
C134        C  0.64283034  0.16799380  0.07913611     0.98400
O135        O  0.61425219  0.14565680  0.10140064    -0.70100
O136        O  0.58712317  0.07111194  0.06265067    -0.73700
Al137      Al  0.61087609  0.07424679  0.10951192     1.49000
C138        C  0.58939310  0.03327600  0.04288341     0.93600
O139        O  0.71365321  0.03919137  0.03195038    -0.79900
O140        O  0.76164029  0.05879467  0.13188441    -0.73500
Al141      Al  0.68680695  0.00485090  0.07261780     1.90100
O142        O  0.75965980  0.09365181  0.06150603    -0.72500
O143        O  0.69299720  0.12977029  0.15088495    -0.72400
O144        O  0.68840472  0.15558032  0.07718529    -0.78000
O145        O  0.62879097  0.07903284  0.15794076    -0.76200
O146        O  0.67348383  0.06126512  0.09601054    -1.12400
O147        O  0.59177229  0.00570531  0.11927909    -0.71600
C148        C  0.61571077  0.96498304  0.12090042     0.99200
C149        C  0.74741712  0.07239151  0.03225024     0.95600
Al150      Al  0.72188928  0.10593889  0.10503863     1.55600
O151        O  0.62432517  0.00178389  0.04662586    -0.76200
C152        C  0.65678902  0.11302352  0.17002602     0.99700
C153        C  0.77487348  0.01643448  0.11969707     0.94600
O154        O  0.75133438  0.99607550  0.09390853    -0.81500
O155        O  0.45256683  0.16586036  0.37964834    -0.81000
C156        C  0.65704270  0.15342172  0.40653813     0.98400
O157        O  0.63686068  0.12446408  0.38364952    -0.70100
O158        O  0.56317382  0.09242299  0.42221536    -0.73700
Al159      Al  0.56526779  0.11885440  0.37568675     1.49000
C160        C  0.52662062  0.09502794  0.44351142     0.93600
O161        O  0.53373976  0.21873720  0.45561075    -0.79900
O162        O  0.54459316  0.26865760  0.35430144    -0.73500
Al163      Al  0.49611051  0.19240290  0.41573278     1.90100
O164        O  0.58178504  0.26852501  0.42335949    -0.72500
O165        O  0.61753414  0.20412950  0.33415173    -0.72400
O166        O  0.64459692  0.19882707  0.40704550    -0.78000
O167        O  0.56917938  0.13831143  0.32705387    -0.76200
O168        O  0.55111743  0.18073379  0.39007302    -1.12400
O169        O  0.49635025  0.09903297  0.36672383    -0.71600
C170        C  0.45457118  0.12153699  0.36776442     0.99200
C171        C  0.56412414  0.25500689  0.45362524     0.95600
Al172      Al  0.59395246  0.23076352  0.38011798     1.55600
O173        O  0.49547031  0.13027666  0.44122135    -0.76200
C174        C  0.59937560  0.17014250  0.31421011     0.99700
C175        C  0.50302914  0.28151361  0.36839354     0.94600
O176        O  0.48455695  0.25731569  0.39490466    -0.81500
O177        O  0.47455805  0.28204935  0.88404216    -0.81000
C178        C  0.64680577  0.39434038  0.91040731     0.98400
O179        O  0.65007223  0.35371294  0.89279402    -0.70100
O180        O  0.60219969  0.28867419  0.93137616    -0.73700
Al181      Al  0.59518796  0.30717861  0.88241041     1.49000
C182        C  0.56995927  0.27923758  0.95532897     0.93600
O183        O  0.50361593  0.38476022  0.95168812    -0.79900
O184        O  0.49492272  0.41325883  0.84657820    -0.73500
Al185      Al  0.49199702  0.33443096  0.91616641     1.90100
O186        O  0.51732354  0.44536411  0.91314083    -0.72500
O187        O  0.59435070  0.40150601  0.83466206    -0.72400
O188        O  0.61017282  0.42318291  0.90580517    -0.78000
O189        O  0.59603211  0.31989715  0.83156325    -0.76200
O190        O  0.54665759  0.35159996  0.89103479    -1.12400
O191        O  0.54943010  0.25207576  0.87208365    -0.71600
C192        C  0.50187328  0.24772624  0.87137970     0.99200
C193        C  0.50902562  0.43071096  0.94480684     0.95600
Al194      Al  0.55406704  0.41506490  0.87593736     1.55600
O195        O  0.52427656  0.28905136  0.94959569    -0.76200
C196        C  0.60311083  0.36218076  0.81728472     0.99700
C197        C  0.45217029  0.40509872  0.86097495     0.94600
O198        O  0.44792203  0.37715565  0.88870646    -0.81500
O199        O  0.73559796  0.54444917  0.60591207    -0.81000
C200        C  0.61855816  0.37720972  0.57694334     0.98400
O201        O  0.65971984  0.37228540  0.59390334    -0.70100
O202        O  0.72772669  0.41939321  0.55782119    -0.73700
Al203      Al  0.70746506  0.42503413  0.60658935     1.49000
C204        C  0.73752776  0.45159031  0.53404877     0.93600
O205        O  0.63242289  0.51972749  0.53796370    -0.79900
O206        O  0.60410845  0.52824240  0.64331323    -0.73500
Al207      Al  0.68320804  0.52923354  0.57357665     1.90100
O208        O  0.57150579  0.50812538  0.57680542    -0.72500
O209        O  0.61203559  0.42840189  0.65406766    -0.72400
O210        O  0.59065020  0.41432602  0.58283240    -0.78000
O211        O  0.69341626  0.42151937  0.65729167    -0.76200
O212        O  0.66437782  0.47494229  0.59835190    -1.12400
O213        O  0.76301794  0.46915163  0.61911621    -0.71600
C214        C  0.76825208  0.51644395  0.61993151     0.99200
C215        C  0.58617697  0.51650908  0.54518770     0.95600
Al216      Al  0.60044847  0.46962657  0.61335726     1.55600
O217        O  0.72797195  0.49699663  0.53994283    -0.76200
C218        C  0.65055485  0.41594309  0.67126363     0.99700
C219        C  0.61386369  0.57056961  0.62893971     0.94600
O220        O  0.64188571  0.57367154  0.60116550    -0.81500
O221        O  0.35356351  0.46463237  0.37798865    -0.81000
C222        C  0.36995847  0.67028392  0.40643763     0.98400
O223        O  0.39793222  0.64854036  0.38362968    -0.70100
O224        O  0.43085542  0.57382724  0.41961234    -0.73700
Al225      Al  0.40125487  0.57717602  0.37443992     1.49000
C226        C  0.42934420  0.53740512  0.44091972     0.93600
O227        O  0.30584303  0.53970344  0.45813103    -0.79900
O228        O  0.24789994  0.55689554  0.36093292    -0.73500
Al229      Al  0.32999436  0.50592978  0.41624117     1.90100
O230        O  0.25693937  0.59346471  0.43078784    -0.72500
O231        O  0.31251288  0.62956232  0.33750511    -0.72400
O232        O  0.32494805  0.65630813  0.41003423    -0.78000
O233        O  0.37827616  0.58267725  0.32668576    -0.76200
O234        O  0.34011992  0.56247703  0.39161082    -1.12400
O235        O  0.42004720  0.50883705  0.36358041    -0.71600
C236        C  0.39728463  0.46710151  0.36472123     0.99200
C237        C  0.27158589  0.57201138  0.45935937     0.95600
Al238      Al  0.28978850  0.60558457  0.38499270     1.55600
O239        O  0.39429702  0.50542924  0.43923784    -0.76200
C240        C  0.34577310  0.61324671  0.31592773     0.99700
C241        C  0.23703596  0.51395034  0.37367664     0.94600
O242        O  0.26381304  0.49453242  0.39814015    -0.81500
O243        O  0.55825642  0.66419143  0.11237599    -0.81000
C244        C  0.35304316  0.64884268  0.08092368     0.98400
O245        O  0.37416728  0.62052616  0.10370879    -0.70100
O246        O  0.44980194  0.58823388  0.06795085    -0.73700
Al247      Al  0.44539790  0.61655196  0.11353635     1.49000
C248        C  0.48762337  0.58907784  0.04775681     0.93600
O249        O  0.48495186  0.71251414  0.03161675    -0.79900
O250        O  0.46568077  0.76806788  0.12971046    -0.73500
Al251      Al  0.51805992  0.68805858  0.07365657     1.90100
O252        O  0.43119741  0.76157618  0.05906487    -0.72500
O253        O  0.39177324  0.70369168  0.15132886    -0.72400
O254        O  0.36702228  0.69378312  0.07808770    -0.78000
O255        O  0.43867565  0.63802608  0.16141140    -0.76200
O256        O  0.46068628  0.67766182  0.09748333    -1.12400
O257        O  0.51355606  0.59752206  0.12506295    -0.71600
C258        C  0.55539926  0.62032255  0.12502153     0.99200
C259        C  0.45261570  0.74675587  0.03041279     0.95600
Al260      Al  0.41745201  0.72775158  0.10439335     1.55600
O261        O  0.51968711  0.62398208  0.05014209    -0.76200
C262        C  0.40594856  0.66845800  0.17200790     0.99700
C263        C  0.50867076  0.77959263  0.11717265     0.94600
O264        O  0.52872276  0.75378888  0.09240604    -0.81500
O265        O  0.23636271  0.48696116  0.88495778    -0.81000
C266        C  0.11963078  0.65836277  0.91059705     0.98400
O267        O  0.16330619  0.66002826  0.89639349    -0.70100
O268        O  0.23082230  0.61249407  0.93293611    -0.73700
Al269      Al  0.21034002  0.60663158  0.88405241     1.49000
C270        C  0.24062045  0.58005345  0.95651082     0.93600
O271        O  0.13431322  0.51184939  0.95353678    -0.79900
O272        O  0.10530561  0.50382377  0.84876691    -0.73500
Al273      Al  0.18446061  0.50270171  0.91752083     1.90100
O274        O  0.07286524  0.52634085  0.91582964    -0.72500
O275        O  0.11480298  0.60248991  0.83638137    -0.72400
O276        O  0.09224954  0.62014975  0.90664470    -0.78000
O277        O  0.19629129  0.60991565  0.83315359    -0.76200
O278        O  0.16622233  0.55733917  0.89287324    -1.12400
O279        O  0.26577908  0.56173571  0.87168466    -0.71600
C280        C  0.27015937  0.51431173  0.87126885     0.99200
C281        C  0.08815325  0.51593754  0.94695945     0.95600
Al282      Al  0.10234277  0.56296018  0.87796586     1.55600
O283        O  0.22992082  0.53479879  0.95066548    -0.76200
C284        C  0.15352014  0.61513357  0.81913577     0.99700
C285        C  0.11549438  0.46144700  0.86239617     0.94600
O286        O  0.14269948  0.45816488  0.89034100    -0.81500
O287        O  0.97362955  0.73761168  0.60282228    -0.81000
C288        C  0.14959490  0.62781511  0.58192466     0.98400
O289        O  0.15039767  0.67150562  0.59564462    -0.70100
O290        O  0.10118082  0.73395660  0.55621861    -0.73700
Al291      Al  0.09478720  0.71698557  0.60582405     1.49000
C292        C  0.06870414  0.74074125  0.53216903     0.93600
O293        O  0.00610995  0.63251726  0.53945386    -0.79900
O294        O  0.99537930  0.61116472  0.64525416    -0.73500
Al295      Al  0.99272111  0.68438418  0.57288220     1.90100
O296        O  0.01965498  0.57466728  0.57986647    -0.72500
O297        O  0.09408323  0.62536090  0.65711102    -0.72400
O298        O  0.11260839  0.59919076  0.58758487    -0.78000
O299        O  0.09710290  0.70693791  0.65730431    -0.76200
O300        O  0.04731066  0.67060257  0.59874330    -1.12400
O301        O  0.04718646  0.77083064  0.61535376    -0.71600
C302        C  0.99942850  0.77335895  0.61508040     0.99200
C303        C  0.01053332  0.58707249  0.54787321     0.95600
Al304      Al  0.05515726  0.60843835  0.61623854     1.55600
O305        O  0.02366189  0.72855490  0.53816834    -0.76200
C306        C  0.10388620  0.66561187  0.67298833     0.99700
C307        C  0.95285785  0.61810442  0.63064386     0.94600
O308        O  0.94908105  0.64284647  0.60149110    -0.81500
O309        O  0.05363102  0.35788779  0.37780678    -0.81000
C310        C  0.84847837  0.37738700  0.41070774     0.98400
O311        O  0.87046457  0.40422433  0.38718907    -0.70100
O312        O  0.94695918  0.43385784  0.42351281    -0.73700
Al313      Al  0.94199770  0.40654812  0.37772132     1.49000
C314        C  0.98410928  0.43089878  0.44410612     0.93600
O315        O  0.98053140  0.30755888  0.45851846    -0.79900
O316        O  0.95556082  0.25369183  0.36187747    -0.73500
Al317      Al  0.01292935  0.33299105  0.41644014     1.90100
O318        O  0.92215850  0.26250284  0.43234500    -0.72500
O319        O  0.88539606  0.32078541  0.34099552    -0.72400
O320        O  0.86100615  0.33230326  0.41431993    -0.78000
O321        O  0.93524347  0.38489863  0.32972317    -0.76200
O322        O  0.95535829  0.34497263  0.39363320    -1.12400
O323        O  0.01059308  0.42534564  0.36663516    -0.71600
C324        C  0.05207731  0.40249881  0.36656419     0.99200
C325        C  0.94594107  0.27538606  0.46031710     0.95600
Al326      Al  0.90971074  0.29635357  0.38754051     1.55600
O327        O  0.01553930  0.39582899  0.44119723    -0.76200
C328        C  0.90298842  0.35347304  0.31936472     0.99700
C329        C  0.99919530  0.24198657  0.37263198     0.94600
O330        O  0.02155178  0.26798745  0.39623754    -0.81500
O331        O  0.85386675  0.55867600  0.11000083    -0.81000
C332        C  0.86484906  0.35610730  0.08158958     0.98400
O333        O  0.89469422  0.37514854  0.10454241    -0.70100
O334        O  0.92844654  0.44911034  0.06837355    -0.73700
Al335      Al  0.90092848  0.44622151  0.11435711     1.49000
C336        C  0.92652190  0.48504674  0.04683839     0.93600
O337        O  0.80198675  0.47826845  0.03381118    -0.79900
O338        O  0.75099276  0.46925907  0.13550429    -0.73500
Al339      Al  0.82810077  0.51570061  0.07378253     1.90100
O340        O  0.75047704  0.43247639  0.06621948    -0.72500
O341        O  0.81407139  0.39455409  0.15529782    -0.72400
O342        O  0.81919852  0.36845735  0.08219985    -0.78000
O343        O  0.88163897  0.44028095  0.16300748    -0.76200
O344        O  0.83902467  0.46103610  0.09975399    -1.12400
O345        O  0.92043795  0.51522179  0.12474535    -0.71600
C346        C  0.89750652  0.55679198  0.12327318     0.99200
C347        C  0.76472426  0.44899271  0.03575723     0.95600
Al348      Al  0.78798679  0.41930937  0.10950813     1.54000
O349        O  0.89109015  0.51609950  0.04875026    -0.76200
C350        C  0.85013966  0.40912346  0.17493457     0.99700
C351        C  0.73863349  0.51059864  0.12104868     0.94600
O352        O  0.76274741  0.52782970  0.09404194    -0.81500
C353        C  0.83595637  0.37275465  0.27401751     0.24400
C354        C  0.88528271  0.35719161  0.28175646    -0.23700
C355        C  0.92057813  0.35438481  0.25364843     0.19300
C356        C  0.90773626  0.36899056  0.21863545     0.24400
C357        C  0.85935399  0.38711274  0.21101670    -0.23600
C358        C  0.82295139  0.38750726  0.23868468     0.19300
F359        F  0.77628112  0.40564966  0.23215767    -0.13600
F360        F  0.80176416  0.37752143  0.30114375    -0.15900
F361        F  0.94321689  0.36682309  0.19217797    -0.15900
F362        F  0.96832380  0.33947438  0.26053377    -0.13600
C363        C  0.01478237  0.46032510  0.50364961     0.24400
C364        C  0.99151755  0.47050018  0.47059179    -0.23700
C365        C  0.97524549  0.51931874  0.46263096     0.19300
C366        C  0.98177933  0.55748975  0.48760019     0.24400
C367        C  0.00460276  0.54739912  0.52094167    -0.23600
C368        C  0.02123173  0.49841342  0.52873817     0.19300
F369        F  0.04393791  0.48710341  0.56056881    -0.13600
F370        F  0.03015939  0.41331095  0.51206506    -0.15900
F371        F  0.96503157  0.60402422  0.47925139    -0.15900
F372        F  0.95378615  0.53042885  0.43032145    -0.13600
C373        C  0.04895654  0.46619376  0.99643560     0.24400
C374        C  0.05016625  0.50924101  0.97492755    -0.23700
C375        C  0.01063434  0.54361792  0.97658238     0.19300
C376        C  0.97007437  0.53546898  0.99946876     0.24400
C377        C  0.96796829  0.49209120  0.02091700    -0.23600
C378        C  0.00789184  0.45730796  0.01915711     0.19300
F379        F  0.00722933  0.41446904  0.03902981    -0.13600
F380        F  0.08612827  0.43169566  0.99408495    -0.15900
F381        F  0.93310008  0.57029697  0.00050919    -0.15900
F382        F  0.01108470  0.58517231  0.95555207    -0.13600
C383        C  0.17706298  0.61904280  0.75340666     0.24400
C384        C  0.14707146  0.63572435  0.78220793    -0.23700
C385        C  0.10666721  0.66820557  0.77485024     0.19300
C386        C  0.09511683  0.68183551  0.73919463     0.24400
C387        C  0.12305762  0.66235203  0.71031735    -0.23600
C388        C  0.16470983  0.63171092  0.71771041     0.19300
F389        F  0.19198118  0.61207657  0.69010749    -0.13600
F390        F  0.21571360  0.58720143  0.75956012    -0.15900
F391        F  0.05420287  0.71064082  0.73272654    -0.15900
F392        F  0.07713908  0.68524592  0.80217869    -0.13600
C393        C  0.64928365  0.61827746  0.13400129     0.24400
C394        C  0.60243479  0.59329648  0.13518125    -0.23700
C395        C  0.60229498  0.54064940  0.13941059     0.19300
C396        C  0.64742588  0.51359799  0.13837970     0.24400
C397        C  0.69352709  0.53848959  0.13313605    -0.23600
C398        C  0.69415654  0.59113784  0.13265910     0.19300
F399        F  0.73829161  0.61636885  0.12869772    -0.13600
F400        F  0.65183208  0.66895989  0.13159758    -0.15900
F401        F  0.64546136  0.46280484  0.13867741    -0.15900
F402        F  0.55836893  0.51467663  0.14140051    -0.13600
C403        C  0.29136104  0.56157599  0.01297814     0.24400
C404        C  0.26463467  0.59571280  0.99127343    -0.23700
C405        C  0.26112766  0.64568105  0.00313468     0.19300
C406        C  0.28570607  0.66173488  0.03447116     0.24400
C407        C  0.31576585  0.62867234  0.05454396    -0.23600
C408        C  0.31660930  0.57786122  0.04422252     0.19300
F409        F  0.34422251  0.54427258  0.06310768    -0.13600
F410        F  0.29540162  0.51288239  0.00303775    -0.15900
F411        F  0.28131302  0.71039743  0.04449077    -0.15900
F412        F  0.23429931  0.67963407  0.98416335    -0.13600
C413        C  0.21587797  0.54856840  0.51120955     0.24400
C414        C  0.24706332  0.58398418  0.49427713    -0.23700
C415        C  0.25240420  0.63159236  0.50994770     0.19300
C416        C  0.22445393  0.64466262  0.54086488     0.24400
C417        C  0.18944136  0.61067356  0.55606892    -0.23600
C418        C  0.18725501  0.56163154  0.54161677     0.19300
F419        F  0.15557319  0.52660677  0.55574222    -0.13600
F420        F  0.21077781  0.50203456  0.49694857    -0.15900
F421        F  0.22997739  0.69137329  0.55470194    -0.15900
F422        F  0.28410121  0.66576712  0.49488564    -0.13600
C423        C  0.14660067  0.40559953  0.36026835     0.24400
C424        C  0.09991557  0.43018465  0.35807510    -0.23700
C425        C  0.10027346  0.48293472  0.35424096     0.19300
C426        C  0.14550330  0.51033577  0.35619009     0.24400
C427        C  0.19135420  0.48578473  0.36207888    -0.23600
C428        C  0.19155312  0.43303620  0.36245581     0.19300
F429        F  0.23534231  0.40783986  0.36675269    -0.13600
F430        F  0.14884654  0.35492634  0.36263256    -0.15900
F431        F  0.14374997  0.56110768  0.35565640    -0.15900
F432        F  0.05658179  0.50863680  0.35138386    -0.13600
C433        C  0.36949243  0.60788477  0.21593521     0.24400
C434        C  0.38166424  0.65798973  0.20751651    -0.23700
C435        C  0.37393150  0.69492989  0.23400178     0.19300
C436        C  0.35785402  0.68111805  0.26911000     0.24400
C437        C  0.34920832  0.63035830  0.27787708    -0.23600
C438        C  0.35387511  0.59426766  0.25066380     0.19300
F439        F  0.34550472  0.54513910  0.25824950    -0.13600
F440        F  0.37426701  0.57146772  0.19059789    -0.15900
F441        F  0.35485769  0.71660668  0.29523205    -0.15900
F442        F  0.38545714  0.74350097  0.22678042    -0.13600
C443        C  0.46343843  0.50017693  0.49720709     0.24400
C444        C  0.46993673  0.53176170  0.46722528    -0.23700
C445        C  0.51602559  0.55747530  0.46230959     0.19300
C446        C  0.55458437  0.55210752  0.48734880     0.24400
C447        C  0.54753984  0.52116047  0.51749888    -0.23600
C448        C  0.50179284  0.49498947  0.52213323     0.19300
F449        F  0.49426874  0.46354056  0.55063150    -0.13600
F450        F  0.41974933  0.47472752  0.50284517    -0.15900
F451        F  0.59807447  0.57820367  0.48266591    -0.15900
F452        F  0.52422407  0.58736954  0.43309514    -0.13600
C453        C  0.75316500  0.38571964  0.48688156     0.24400
C454        C  0.76045687  0.43517401  0.49916008    -0.23700
C455        C  0.79071181  0.46765276  0.47823509     0.19300
C456        C  0.81613373  0.45001035  0.44742527     0.24400
C457        C  0.81183666  0.39944279  0.43679615    -0.23600
C458        C  0.77837997  0.36819054  0.45611088     0.19300
F459        F  0.77106026  0.31995758  0.44580558    -0.13600
F460        F  0.72197300  0.35382984  0.50494946    -0.15900
F461        F  0.84763582  0.48174396  0.42956937    -0.15900
F462        F  0.79818477  0.51577155  0.48873246    -0.13600
C463        C  0.90577284  0.53906952  0.64234905     0.24400
C464        C  0.90714537  0.59170543  0.64338856    -0.23700
C465        C  0.86162695  0.61788184  0.64480642     0.19300
C466        C  0.81577817  0.59253053  0.64110300     0.24400
C467        C  0.81456275  0.54036002  0.63494915    -0.23600
C468        C  0.85985651  0.51352134  0.63807326     0.19300
F469        F  0.86053700  0.46315545  0.63337722    -0.13600
F470        F  0.94925068  0.51277294  0.64068671    -0.15900
F471        F  0.77283382  0.61978224  0.64085774    -0.15900
F472        F  0.86184515  0.66865655  0.64641158    -0.13600
C473        C  0.52878794  0.55232767  0.99340969     0.24400
C474        C  0.49472830  0.54762926  0.02225951    -0.23700
C475        C  0.46785168  0.50227129  0.02699757     0.19300
C476        C  0.47350893  0.46326270  0.00244072     0.24400
C477        C  0.50613167  0.46889150  0.97296815    -0.23600
C478        C  0.53450360  0.51328787  0.96902869     0.19300
F479        F  0.56787607  0.51907862  0.94140144    -0.13600
F480        F  0.55588315  0.59500091  0.98822598    -0.15900
F481        F  0.44572355  0.42086309  0.00675114    -0.15900
F482        F  0.43625557  0.49527196  0.05551104    -0.13600
C483        C  0.59054117  0.35046640  0.75134411     0.24400
C484        C  0.62085688  0.36719115  0.77977039    -0.23700
C485        C  0.66420660  0.39570920  0.77205773     0.19300
C486        C  0.67610981  0.40894708  0.73632328     0.24400
C487        C  0.64389544  0.39503018  0.70802208    -0.23600
C488        C  0.60169513  0.36460233  0.71575360     0.19300
F489        F  0.57023123  0.34991675  0.68890102    -0.13600
F490        F  0.54799725  0.32377947  0.75833604    -0.15900
F491        F  0.71690165  0.43839306  0.72974865    -0.15900
F492        F  0.69385287  0.41238918  0.79936462    -0.13600
C493        C  0.65754605  0.40750405  0.97574698     0.24400
C494        C  0.68008456  0.40520567  0.94135837    -0.23700
C495        C  0.73147400  0.41647319  0.93781254     0.19300
C496        C  0.75945290  0.43130214  0.96836456     0.24400
C497        C  0.73632497  0.43430313  0.00280949    -0.23600
C498        C  0.68515154  0.42159946  0.00601797     0.19300
F499        F  0.66112769  0.42402399  0.03845646    -0.13600
F500        F  0.60816923  0.39580076  0.98010141    -0.15900
F501        F  0.80910851  0.44198681  0.96437419    -0.15900
F502        F  0.75407263  0.41443875  0.90487745    -0.13600
C503        C  0.36050785  0.40988414  0.84745148     0.24400
C504        C  0.40723269  0.43411083  0.85011431    -0.23700
C505        C  0.40825878  0.48673747  0.85273369     0.19300
C506        C  0.36337513  0.51398246  0.85649504     0.24400
C507        C  0.31653507  0.48907400  0.85734823    -0.23600
C508        C  0.31572906  0.43700602  0.85044600     0.19300
F509        F  0.27152030  0.41148042  0.84901956    -0.13600
F510        F  0.35825396  0.35924811  0.84463592    -0.15900
F511        F  0.36625587  0.56392639  0.86286129    -0.15900
F512        F  0.45283721  0.51124422  0.85605500    -0.13600
C513        C  0.57212336  0.33620927  0.48514295     0.24400
C514        C  0.57742197  0.28417378  0.48619765    -0.23700
C515        C  0.59777905  0.26166048  0.51741729     0.19300
C516        C  0.61193454  0.29123226  0.54735466     0.24400
C517        C  0.60460233  0.34338099  0.54662959    -0.23600
C518        C  0.58542328  0.36529110  0.51483727     0.19300
F519        F  0.58176470  0.41562541  0.51166594    -0.13600
F520        F  0.55379600  0.35912000  0.45512702    -0.15900
F521        F  0.63247368  0.26906156  0.57684073    -0.15900
F522        F  0.60560240  0.21150252  0.51835014    -0.13600
C523        C  0.50316841  0.37315306  0.35395443     0.24400
C524        C  0.47676222  0.32761471  0.35661355    -0.23700
C525        C  0.42397301  0.32830723  0.35492508     0.19300
C526        C  0.39792892  0.37380822  0.35372902     0.24400
C527        C  0.42413133  0.41986145  0.35492096    -0.23600
C528        C  0.47723267  0.41881939  0.35322884     0.19300
F529        F  0.50446684  0.46190396  0.35423726    -0.13600
F530        F  0.55412161  0.37378378  0.35593840    -0.15900
F531        F  0.34690493  0.37260156  0.35363791    -0.15900
F532        F  0.39743769  0.28476782  0.35637746    -0.13600
C533        C  0.61489864  0.87161697  0.13078214     0.24400
C534        C  0.58898488  0.91753665  0.13077955    -0.23700
C535        C  0.53602435  0.91637406  0.13409862     0.19300
C536        C  0.50965318  0.87075234  0.13325590     0.24400
C537        C  0.53555823  0.82546925  0.12899980    -0.23600
C538        C  0.58844514  0.82620621  0.12965295     0.19300
F539        F  0.61467333  0.78286704  0.12713780    -0.13600
F540        F  0.66589391  0.87043964  0.12941186    -0.15900
F541        F  0.45863920  0.87138730  0.13291129    -0.15900
F542        F  0.50918988  0.95943209  0.13515429    -0.13600
C543        C  0.59227725  0.13305248  0.21657818     0.24400
C544        C  0.64315420  0.13463386  0.20565902    -0.23700
C545        C  0.67884539  0.15560136  0.22926701     0.19300
C546        C  0.66436057  0.17075783  0.26424815     0.24400
C547        C  0.61407530  0.16516619  0.27579428    -0.23600
C548        C  0.57808979  0.14786699  0.25114002     0.19300
F549        F  0.52890250  0.14405297  0.26087366    -0.13600
F550        F  0.55578174  0.11653292  0.19385483    -0.15900
F551        F  0.69991606  0.18764319  0.28751592    -0.15900
F552        F  0.72789640  0.15889348  0.21929217    -0.13600
C553        C  0.57065316  0.20350123  0.04315938     0.24400
C554        C  0.62206020  0.20473874  0.05257723    -0.23700
C555        C  0.65458507  0.23538371  0.03197963     0.19300
C556        C  0.63728856  0.26048871  0.00113864     0.24400
C557        C  0.58667463  0.25623388  0.99014577    -0.23600
C558        C  0.55321714  0.22889235  0.01233586     0.19300
F559        F  0.50403914  0.22430534  0.00319449    -0.13600
F560        F  0.53747683  0.17531364  0.06247410    -0.15900
F561        F  0.67062480  0.28845282  0.98172907    -0.15900
F562        F  0.70368926  0.24031095  0.04118813    -0.13600
C563        C  0.44141778  0.70874321  0.44225326     0.24400
C564        C  0.39032596  0.70863607  0.43199849    -0.23700
C565        C  0.35692754  0.73902730  0.45161865     0.19300
C566        C  0.37280599  0.76456014  0.48258670     0.24400
C567        C  0.42266413  0.76094308  0.49498149    -0.23600
C568        C  0.45740533  0.73463512  0.47338165     0.19300
F569        F  0.50633991  0.73157089  0.48337921    -0.13600
F570        F  0.47546953  0.68125985  0.42360247    -0.15900
F571        F  0.33877579  0.79244700  0.50073163    -0.15900
F572        F  0.30799168  0.74260364  0.44165850    -0.13600
C573        C  0.61207209  0.66300673  0.63557496     0.24400
C574        C  0.58704621  0.61691598  0.63957590    -0.23700
C575        C  0.53418774  0.61688803  0.64231877     0.19300
C576        C  0.50687538  0.66138501  0.63708371     0.24400
C577        C  0.53199816  0.70678590  0.62909474    -0.23600
C578        C  0.58514948  0.70727253  0.63055242     0.19300
F579        F  0.61176306  0.75002525  0.62451814    -0.13600
F580        F  0.66302375  0.66455477  0.63316053    -0.15900
F581        F  0.45590209  0.65905526  0.63707731    -0.15900
F582        F  0.50866054  0.57301735  0.64593715    -0.13600
C583        C  0.52889780  0.96771125  0.48716096     0.24400
C584        C  0.50051483  0.97630781  0.51853420    -0.23700
C585        C  0.48021262  0.02414414  0.52486447     0.19300
C586        C  0.48942121  0.06304028  0.50075067     0.24400
C587        C  0.51874520  0.05477799  0.46980642    -0.23600
C588        C  0.53811005  0.00669798  0.46299808     0.19300
F589        F  0.56504058  0.99694408  0.43255230    -0.13600
F590        F  0.54850453  0.92191725  0.48010474    -0.15900
F591        F  0.47006439  0.10890588  0.50797142    -0.15900
F592        F  0.45099613  0.03342701  0.55429234    -0.13600
C593        C  0.47460978  0.79899048  0.97610916     0.24400
C594        C  0.43941600  0.76999275  0.99527541    -0.23700
C595        C  0.39080712  0.76440452  0.98109265     0.19300
C596        C  0.37618751  0.79071212  0.94993450     0.24400
C597        C  0.40977056  0.82423208  0.93278096    -0.23600
C598        C  0.46010737  0.82569033  0.94514135     0.19300
F599        F  0.49513530  0.85448346  0.92811957    -0.13600
F600        F  0.52237975  0.80370709  0.98850288    -0.15900
F601        F  0.32852806  0.78490403  0.93762439    -0.15900
F602        F  0.35720927  0.73379296  0.99776592    -0.13600
C603        C  0.46236008  0.03961809  0.99884244     0.24400
C604        C  0.46916866  0.00780258  0.96930067    -0.23700
C605        C  0.51581653  0.98411865  0.96393863     0.19300
C606        C  0.55519872  0.99239911  0.98777238     0.24400
C607        C  0.54869270  0.02486769  0.01707580    -0.23600
C608        C  0.50178093  0.04819905  0.02255401     0.19300
F609        F  0.49349093  0.07880117  0.05120324    -0.13600
F610        F  0.41815868  0.06377453  0.00413939    -0.15900
F611        F  0.59981634  0.96933384  0.98174774    -0.15900
F612        F  0.52350958  0.95299115  0.93550544    -0.13600
C613        C  0.39242196  0.85013526  0.77257040     0.24400
C614        C  0.35605078  0.88682118  0.78023118    -0.23700
C615        C  0.32821745  0.90744903  0.75180012     0.19300
C616        C  0.33997445  0.89518801  0.71596800     0.24400
C617        C  0.37877956  0.86115037  0.70818502    -0.23600
C618        C  0.40335863  0.83697916  0.73674662     0.19300
F619        F  0.44094000  0.80409540  0.72992319    -0.13600
F620        F  0.41893918  0.82872858  0.79980946    -0.15900
F621        F  0.31528564  0.91855883  0.68868056    -0.15900
F622        F  0.29278805  0.94264051  0.75852198    -0.13600
C623        C  0.47875424  0.10962023  0.85055385     0.24400
C624        C  0.42591705  0.10783834  0.84937599    -0.23700
C625        C  0.39941440  0.15314487  0.84872837     0.19300
C626        C  0.42463003  0.19902618  0.85261329     0.24400
C627        C  0.47717786  0.20071821  0.85797694    -0.23600
C628        C  0.50419658  0.15554664  0.85486895     0.19300
F629        F  0.55482115  0.15501933  0.85926730    -0.13600
F630        F  0.50544007  0.06647679  0.85193656    -0.15900
F631        F  0.39692210  0.24155058  0.85342227    -0.15900
F632        F  0.34843339  0.15267799  0.84726533    -0.13600
C633        C  0.13416002  0.76053641  0.48479327     0.24400
C634        C  0.08397734  0.76363492  0.49689170    -0.23700
C635        C  0.04933196  0.78985793  0.47533057     0.19300
C636        C  0.06547533  0.81591834  0.44428447     0.24400
C637        C  0.11669469  0.81651133  0.43416294    -0.23600
C638        C  0.15017791  0.78619973  0.45370320     0.19300
F639        F  0.19905617  0.78260349  0.44338930    -0.13600
F640        F  0.16825728  0.73320153  0.50338506    -0.15900
F641        F  0.03137659  0.84352106  0.42577833    -0.15900
F642        F  0.00036468  0.79309917  0.48548183    -0.13600
C643        C  0.07734323  0.19573039  0.35600168     0.24400
C644        C  0.02468901  0.19594069  0.35980636    -0.23700
C645        C  0.99853273  0.15020418  0.35775044     0.19300
C646        C  0.02489565  0.10482003  0.35587530     0.24400
C647        C  0.07807463  0.10435812  0.35609429    -0.23600
C648        C  0.10371890  0.15058468  0.35390977     0.19300
F649        F  0.15468478  0.15231998  0.35212958    -0.13600
F650        F  0.10364818  0.23943234  0.35642238    -0.15900
F651        F  0.99818787  0.06139248  0.35708389    -0.15900
F652        F  0.94772531  0.14899331  0.36128920    -0.13600
C653        C  0.28315221  0.97890014  0.51453696     0.24400
C654        C  0.25792493  0.94262406  0.49400685    -0.23700
C655        C  0.25654844  0.89297488  0.50661261     0.19300
C656        C  0.28251755  0.87910889  0.53800693     0.24400
C657        C  0.31306179  0.91407669  0.55614261    -0.23600
C658        C  0.31093304  0.96478660  0.54508171     0.19300
F659        F  0.33735735  0.00058488  0.56293159    -0.13600
F660        F  0.28364382  0.02749420  0.50366426    -0.15900
F661        F  0.27973919  0.83087097  0.54947651    -0.15900
F662        F  0.23059963  0.85763388  0.48811736    -0.13600
C663        C  0.40617891  0.04116973  0.35581756     0.24400
C664        C  0.40689167  0.09397207  0.35909510    -0.23700
C665        C  0.36043493  0.11910423  0.35988176     0.19300
C666        C  0.31508009  0.09225898  0.36104494     0.24400
C667        C  0.31463051  0.03954657  0.36113699    -0.23600
C668        C  0.36050137  0.01433110  0.35674390     0.19300
F669        F  0.36162200  0.96352371  0.35677419    -0.13600
F670        F  0.44971535  0.01492909  0.35459068    -0.15900
F671        F  0.27139060  0.11800478  0.36404441    -0.15900
F672        F  0.35865985  0.16981008  0.36177504    -0.13600
C673        C  0.03590870  0.72720332  0.97722211     0.24400
C674        C  0.07157801  0.75465474  0.99686343    -0.23700
C675        C  0.12097044  0.75801728  0.98341457     0.19300
C676        C  0.13552046  0.73129417  0.95246646     0.24400
C677        C  0.10134146  0.69896679  0.93514409    -0.23600
C678        C  0.05049866  0.70003743  0.94646226     0.19300
F679        F  0.01488868  0.67413722  0.92805449    -0.13600
F680        F  0.98755772  0.72436501  0.98897595    -0.15900
F681        F  0.18349929  0.73579782  0.94030715    -0.15900
F682        F  0.15540903  0.78676246  0.00064431    -0.13600
C683        C  0.97607754  0.60701448  0.13825494     0.24400
C684        C  0.92350109  0.60489025  0.13297479    -0.23700
C685        C  0.89724504  0.65059291  0.13079738     0.19300
C686        C  0.92314063  0.69633340  0.12946241     0.24400
C687        C  0.97600385  0.69803423  0.13069422    -0.23600
C688        C  0.00200407  0.65314800  0.13720927     0.19300
F689        F  0.05292742  0.65327820  0.13931746    -0.13600
F690        F  0.00309943  0.56432492  0.14169216    -0.15900
F691        F  0.89637088  0.73905079  0.12498546    -0.15900
F692        F  0.84642867  0.65122577  0.12757357    -0.13600
C693        C  0.86379745  0.91061245  0.13943084     0.24400
C694        C  0.91076160  0.93493710  0.13641809    -0.23700
C695        C  0.91160716  0.98793371  0.13554531     0.19300
C696        C  0.86673239  0.01526410  0.13390436     0.24400
C697        C  0.82018117  0.99037265  0.13316040    -0.23600
C698        C  0.81908540  0.93804391  0.13762261     0.19300
F699        F  0.77447656  0.91310003  0.13788550    -0.13600
F700        F  0.86091546  0.85994373  0.14169947    -0.15900
F701        F  0.86908324  0.06560504  0.12891298    -0.15900
F702        F  0.95573026  0.01342842  0.13259508    -0.13600
C703        C  0.08615212  0.85343227  0.23934425     0.24400
C704        C  0.12166817  0.85670826  0.21133756    -0.23700
C705        C  0.17077857  0.87322911  0.21931538     0.19300
C706        C  0.18329216  0.88858830  0.25462339     0.24400
C707        C  0.14659891  0.88801821  0.28209553    -0.23600
C708        C  0.09847927  0.86872896  0.27433086     0.19300
F709        F  0.06268046  0.86616748  0.30058395    -0.13600
F710        F  0.03858017  0.83762962  0.23233410    -0.15900
F711        F  0.22977817  0.90753296  0.26125613    -0.15900
F712        F  0.20526013  0.87833506  0.19237027    -0.13600
C713        C  0.19552539  0.94692377  0.04404827     0.24400
C714        C  0.19646564  0.89624551  0.05496840    -0.23700
C715        C  0.22720940  0.86305309  0.03546401     0.19300
C716        C  0.25275562  0.87888283  0.00423819     0.24400
C717        C  0.24952132  0.92877123  0.99200661    -0.23600
C718        C  0.22196736  0.96302502  0.01305272     0.19300
F719        F  0.21805730  0.01156599  0.00251091    -0.13600
F720        F  0.16641468  0.98043108  0.06187837    -0.15900
F721        F  0.28028306  0.84487662  0.98571291    -0.15900
F722        F  0.23137734  0.81450060  0.04596096    -0.13600
C723        C  0.91920357  0.81904887  0.62976763     0.24400
C724        C  0.97225292  0.81960949  0.62661891    -0.23700
C725        C  0.99740806  0.86598672  0.62969357     0.19300
C726        C  0.97009202  0.91070523  0.63265927     0.24400
C727        C  0.91716903  0.91005346  0.63226120    -0.23600
C728        C  0.89213658  0.86373289  0.63204833     0.19300
F729        F  0.84110960  0.86189208  0.63174361    -0.13600
F730        F  0.89292057  0.77538219  0.62842394    -0.15900
F731        F  0.99539410  0.95496831  0.63185135    -0.15900
F732        F  0.04821451  0.86871344  0.62673519    -0.13600
C733        C  0.86828860  0.22780247  0.53913689     0.24400
C734        C  0.90276697  0.19661667  0.55699679    -0.23700
C735        C  0.95369385  0.19820915  0.54593049     0.19300
C736        C  0.96845153  0.22622534  0.51555498     0.24400
C737        C  0.93256274  0.25234919  0.49538340    -0.23600
C738        C  0.88283942  0.25445645  0.50812087     0.19300
F739        F  0.84804225  0.28156213  0.48999740    -0.13600
F740        F  0.81978693  0.23030948  0.55031180    -0.15900
F741        F  0.01709364  0.22489348  0.50436448    -0.15900
F742        F  0.98887717  0.17058252  0.56334252    -0.13600
C743        C  0.96970311  0.04994449  0.49333633     0.24400
C744        C  0.94957928  0.00844082  0.51170590    -0.23700
C745        C  0.97311697  0.96183355  0.50944858     0.19300
C746        C  0.01612173  0.95641629  0.48832577     0.24400
C747        C  0.03621810  0.99773920  0.46954189    -0.23600
C748        C  0.01292165  0.04466428  0.47223799     0.19300
F749        F  0.03140259  0.08498669  0.45398430    -0.13600
F750        F  0.94840225  0.09575838  0.49689993    -0.15900
F751        F  0.03919578  0.91127645  0.48717272    -0.15900
F752        F  0.95564545  0.92223915  0.52901912    -0.13600
C753        C  0.73078732  0.14941499  0.49408127     0.24400
C754        C  0.73623533  0.09769268  0.50060575    -0.23700
C755        C  0.71892279  0.06417691  0.47387564     0.19300
C756        C  0.69602776  0.08200682  0.44205781     0.24400
C757        C  0.69030793  0.13388675  0.43590421    -0.23600
C758        C  0.70911101  0.16715312  0.46220959     0.19300
F759        F  0.70476057  0.21749141  0.45809143    -0.13600
F760        F  0.74515572  0.18361944  0.51903111    -0.15900
F761        F  0.67761851  0.04821645  0.41808961    -0.15900
F762        F  0.72246858  0.01397064  0.47893102    -0.13600
C763        C  0.64181686  0.90707872  0.64250758     0.24400
C764        C  0.59615377  0.93308191  0.64232254    -0.23700
C765        C  0.59732597  0.98572841  0.64360858     0.19300
C766        C  0.64316206  0.01179490  0.63988451     0.24400
C767        C  0.68848127  0.98543014  0.63492463    -0.23600
C768        C  0.68752242  0.93287012  0.63925051     0.19300
F769        F  0.73054314  0.90583301  0.63755527    -0.13600
F770        F  0.64186171  0.85625195  0.64246797    -0.15900
F771        F  0.64235765  0.06250803  0.63763945    -0.15900
F772        F  0.55375696  0.01195936  0.64386474    -0.13600
C773        C  0.81219847  0.06633378  0.94056665     0.24400
C774        C  0.82542012  0.11689325  0.93499981    -0.23700
C775        C  0.80948156  0.15252938  0.96034175     0.19300
C776        C  0.78451614  0.13786807  0.99191881     0.24400
C777        C  0.77256635  0.08732106  0.99810966    -0.23600
C778        C  0.78502068  0.05180247  0.97153122     0.19300
F779        F  0.77363217  0.00267779  0.97657083    -0.13600
F780        F  0.82706371  0.03084899  0.91663955    -0.15900
F781        F  0.77290488  0.17320679  0.01682895    -0.15900
F782        F  0.82158711  0.20135262  0.95602475    -0.13600
C783        C  0.97941436  0.01092129  0.96939567     0.24400
C784        C  0.00216303  0.05792593  0.97577824    -0.23700
C785        C  0.02869971  0.06577920  0.00792816     0.19300
C786        C  0.03494640  0.02635204  0.03230725     0.24400
C787        C  0.01471663  0.97856723  0.02476149    -0.23600
C788        C  0.98577086  0.97163536  0.99361333     0.19300
F789        F  0.96491662  0.92640854  0.98589011    -0.13600
F790        F  0.95128969  0.00259945  0.93937664    -0.15900
F791        F  0.06057142  0.03507608  0.06338434    -0.15900
F792        F  0.05012853  0.11087494  0.01515518    -0.13600
C793        C  0.87238526  0.09899126  0.77144615     0.24400
C794        C  0.88933928  0.14792637  0.77985442    -0.23700
C795        C  0.88773522  0.18492318  0.75265499     0.19300
C796        C  0.87237681  0.17237496  0.71746246     0.24400
C797        C  0.85775036  0.12306030  0.70923953    -0.23600
C798        C  0.85712480  0.08683134  0.73650726     0.19300
F799        F  0.84408070  0.03881110  0.72879626    -0.13600
F800        F  0.87153199  0.06213224  0.79683490    -0.15900
F801        F  0.87380836  0.20775137  0.69102549    -0.15900
F802        F  0.90326316  0.23241454  0.75955326    -0.13600
C803        C  0.85254460  0.31661827  0.02044549     0.24400
C804        C  0.88361914  0.32447611  0.05086489    -0.23700
C805        C  0.93421848  0.30921587  0.04834952     0.19300
C806        C  0.95275826  0.28620927  0.01670529     0.24400
C807        C  0.92163508  0.27909073  0.98619464    -0.23600
C808        C  0.87163148  0.29611333  0.98845519     0.19300
F809        F  0.84103765  0.29499903  0.95916828    -0.13600
F810        F  0.80366488  0.33102919  0.02064479    -0.15900
F811        F  0.00168224  0.27211809  0.01577173    -0.15900
F812        F  0.96627195  0.31737930  0.07622351    -0.13600
C813        C  0.09185881  0.32388592  0.85421385     0.24400
C814        C  0.03882577  0.32231435  0.85506757    -0.23700
C815        C  0.01248989  0.36705825  0.84816532     0.19300
C816        C  0.03844355  0.41294339  0.84539218     0.24400
C817        C  0.09098001  0.41481728  0.84962571    -0.23600
C818        C  0.11749876  0.36960694  0.85181439     0.19300
F819        F  0.16834184  0.37004595  0.85487901    -0.13600
F820        F  0.11918798  0.28150408  0.85847705    -0.15900
F821        F  0.01166761  0.45594384  0.84301383    -0.15900
F822        F  0.96147681  0.36735145  0.84762158    -0.13600
C823        C  0.15308971  0.01571897  0.85326170     0.24400
C824        C  0.19923691  0.04029509  0.85963439    -0.23700
C825        C  0.20016620  0.09325681  0.85812789     0.19300
C826        C  0.15560042  0.12053045  0.85557701     0.24400
C827        C  0.10908125  0.09588195  0.85341126    -0.23600
C828        C  0.10842405  0.04334838  0.85000485     0.19300
F829        F  0.06400687  0.01834987  0.84757786    -0.13600
F830        F  0.15033848  0.96497586  0.85312716    -0.15900
F831        F  0.15761171  0.17123608  0.85784810    -0.15900
F832        F  0.24391836  0.11916587  0.86161667    -0.13600
loop_ 
_geom_bond_atom_site_label_1 
_geom_bond_atom_site_label_2 
_geom_bond_distance 
_geom_bond_site_symmetry_2 
_ccdc_geom_bond_type 
O1           C16   1.264       .  A
O1           Al9   1.888       .  S
C2           O12   1.261       .  A
C2            O3   1.273       .  A
C2          C774   1.480       .  S
O3           Al5   1.939       .  S
O4            C6   1.256       .  A
O4           Al5   1.899       .  S
Al5          O13   1.927       .  S
Al5          O15   1.936       .  S
Al5          O14   1.792       .  S
C6           O19   1.258       .  A
C6          C807   1.506       .  S
O7           C17   1.259       .  A
O7           Al9   1.915       .  S
O8           C21   1.268       .  A
O8          Al18   1.908   1_455  S
Al9          O22   1.931       .  S
Al9          O19   1.922   1_455  S
Al9          O14   1.786   1_455  S
O10          C17   1.250   1_655  A
O10         Al18   1.869       .  S
O11          C20   1.248       .  A
O11         Al18   1.865       .  S
O12         Al18   1.877       .  S
O13          C20   1.259       .  A
O14         Al18   1.797       .  S
O15          C16   1.270   1_655  A
C16         C814   1.495       .  S
C17         C784   1.468       .  S
C20         C794   1.489       .  S
C21          O22   1.271       .  A
C21         C827   1.483       .  S
O23          C38   1.262   1_565  A
O23         Al31   1.885   1_565  S
C24          O34   1.257       .  A
C24          O25   1.270       .  A
C24         C734   1.489       .  S
O25         Al27   1.940       .  S
O26          C28   1.254       .  A
O26         Al27   1.887       .  S
Al27         O35   1.904       .  S
Al27         O37   1.947       .  S
Al27         O36   1.791       .  S
C28          O41   1.259       .  A
C28         C754   1.500       .  S
O29          C39   1.259       .  A
O29         Al31   1.902       .  S
O30          C43   1.266       .  A
O30         Al40   1.909   1_565  S
Al31         O44   1.920   1_545  S
Al31         O41   1.929       .  S
Al31         O36   1.789       .  S
O32          C39   1.253       .  A
O32         Al40   1.879       .  S
O33          C42   1.253       .  A
O33         Al40   1.890       .  S
O34         Al40   1.869       .  S
O35          C42   1.256       .  A
O36         Al40   1.796       .  S
O37          C38   1.271       .  A
C38         C767   1.496   1_545  S
C39         C744   1.447       .  S
C42         C797   1.467       .  S
C43          O44   1.266       .  A
C43         C727   1.481       .  S
O45          C60   1.264       .  A
O45         Al53   1.910       .  S
C46          O56   1.258       .  A
C46          O47   1.265       .  A
C46         C714   1.494       .  S
O47         Al49   1.933       .  S
O48          C50   1.253       .  A
O48         Al49   1.860       .  S
Al49         O57   1.877       .  S
Al49         O59   1.923   1_455  S
Al49         O58   1.787       .  S
C50          O63   1.264   1_455  A
C50         C787   1.467       .  S
O51          C61   1.261       .  A
O51         Al53   1.912   1_455  S
O52          C65   1.269       .  A
O52         Al62   1.927       .  S
Al53         O66   1.913       .  S
Al53         O63   1.920       .  S
Al53         O58   1.782   1_655  S
O54          C61   1.264       .  A
O54         Al62   1.924       .  S
O55          C64   1.268       .  A
O55         Al62   1.956       .  S
O56         Al62   1.890       .  S
O57          C64   1.257       .  A
O58         Al62   1.791       .  S
O59          C60   1.264       .  A
C60         C694   1.496       .  S
C61         C674   1.483   1_554  S
C64         C704   1.477       .  S
C65          O66   1.266   1_455  A
C65         C687   1.493   1_455  S
O67          C82   1.263       .  A
O67         Al75   1.903       .  S
C68          O78   1.258       .  A
C68          O69   1.262       .  A
C68         C637   1.492       .  S
O69         Al71   1.924       .  S
O70          C72   1.253       .  A
O70         Al71   1.865       .  S
Al71         O79   1.875       .  S
Al71         O81   1.935   1_565  S
Al71         O80   1.785       .  S
C72          O85   1.262   1_565  A
C72         C747   1.460       .  S
O73          C83   1.261       .  A
O73         Al75   1.904   1_565  S
O74          C87   1.268   1_565  A
O74         Al84   1.927       .  S
Al75         O88   1.905       .  S
Al75         O85   1.924       .  S
Al75         O80   1.783   1_545  S
O76          C83   1.266       .  A
O76         Al84   1.927       .  S
O77          C86   1.271       .  A
O77         Al84   1.958       .  S
O78         Al84   1.896       .  S
O79          C86   1.259       .  A
O80         Al84   1.788       .  S
O81          C82   1.266       .  A
C82         C647   1.496       .  S
C83         C654   1.481       .  S
C86         C707   1.482       .  S
C87          O88   1.263       .  A
C87         C667   1.490       .  S
O89         C104   1.260       .  A
O89         Al97   1.872       .  S
C90         O100   1.259       .  A
C90          O91   1.274       .  A
C90         C597   1.498       .  S
O91         Al93   1.953       .  S
O92          C94   1.253       .  A
O92         Al93   1.893       .  S
Al93        O101   1.911       .  S
Al93        O103   1.958       .  S
Al93        O102   1.790       .  S
C94         O107   1.257       .  A
C94         C717   1.495       .  S
O95         C105   1.260       .  A
O95         Al97   1.896       .  S
O96         C109   1.271       .  A
O96        Al106   1.925   1_545  S
Al97        O110   1.913       .  S
Al97        O107   1.922   1_545  S
Al97        O102   1.785   1_545  S
O98         C105   1.252   1_565  A
O98        Al106   1.871       .  S
O99         C108   1.253       .  A
O99        Al106   1.886       .  S
O100       Al106   1.876       .  S
O101        C108   1.257       .  A
O102       Al106   1.797       .  S
O103        C104   1.274   1_565  A
C104        C824   1.498       .  S
C105        C604   1.458       .  S
C108        C614   1.474       .  S
C109        O110   1.265       .  A
C109        C624   1.483       .  S
O111        C126   1.260       .  A
O111       Al119   1.876       .  S
C112        O122   1.259       .  A
C112        O113   1.273       .  A
C112        C657   1.494       .  S
O113       Al115   1.951       .  S
O114        C116   1.257       .  A
O114       Al115   1.901       .  S
Al115       O123   1.917       .  S
Al115       O125   1.957       .  S
Al115       O124   1.785       .  S
C116        O129   1.260       .  A
C116        C567   1.499       .  S
O117        C127   1.259       .  A
O117       Al119   1.893       .  S
O118        C131   1.268       .  A
O118       Al128   1.917       .  S
Al119       O132   1.917       .  S
Al119       O129   1.929       .  S
Al119       O124   1.782       .  S
O120        C127   1.254       .  A
O120       Al128   1.877       .  S
O121        C130   1.254       .  A
O121       Al128   1.888       .  S
O122       Al128   1.875       .  S
O123        C130   1.259       .  A
O124       Al128   1.795       .  S
O125        C126   1.273       .  A
C126        C577   1.501       .  S
C127        C584   1.462       .  S
C130        C617   1.473       .  S
C131        O132   1.267       .  A
C131        C764   1.480       .  S
O133        C148   1.262       .  A
O133       Al141   1.899   1_565  S
C134        O144   1.261       .  A
C134        O135   1.264       .  A
C134        C554   1.496       .  S
O135       Al137   1.932       .  S
O136        C138   1.250       .  A
O136       Al137   1.848       .  S
Al137       O145   1.859       .  S
Al137       O147   1.930       .  S
Al137       O146   1.773       .  S
C138        O151   1.265       .  A
C138        C607   1.463       .  S
O139        C149   1.259       .  A
O139       Al141   1.894       .  S
O140        C153   1.270       .  A
O140       Al150   1.925       .  S
Al141       O154   1.907   1_545  S
Al141       O151   1.925       .  S
Al141       O146   1.776       .  S
O142        C149   1.266       .  A
O142       Al150   1.924       .  S
O143        C152   1.272       .  A
O143       Al150   1.967       .  S
O144       Al150   1.904       .  S
O145        C152   1.256       .  A
O146       Al150   1.784       .  S
O147        C148   1.265   1_545  A
C148        C534   1.494       .  S
C149        C777   1.479   1_554  S
C152        C544   1.484       .  S
C153        O154   1.265   1_545  A
C153        C697   1.482   1_545  S
O155        C170   1.265       .  A
O155       Al163   1.906       .  S
C156        O166   1.259       .  A
C156        O157   1.267       .  A
C156        C757   1.498       .  S
O157       Al159   1.934       .  S
O158        C160   1.251       .  A
O158       Al159   1.858       .  S
Al159       O167   1.872       .  S
Al159       O169   1.936       .  S
Al159       O168   1.780       .  S
C160        O173   1.261       .  A
C160        C587   1.461       .  S
O161        C171   1.260       .  A
O161       Al163   1.918       .  S
O162        C175   1.270       .  A
O162       Al172   1.918       .  S
Al163       O176   1.922       .  S
Al163       O173   1.906       .  S
Al163       O168   1.770       .  S
O164        C171   1.263       .  A
O164       Al172   1.920       .  S
O165        C174   1.266       .  A
O165       Al172   1.947       .  S
O166       Al172   1.885       .  S
O167        C174   1.258       .  A
O168       Al172   1.788       .  S
O169        C170   1.267       .  A
C170        C664   1.500       .  S
C171        C514   1.479       .  S
C174        C547   1.478       .  S
C175        O176   1.268       .  A
C175        C524   1.484       .  S
O177        C192   1.263       .  A
O177       Al185   1.895       .  S
C178        O188   1.257       .  A
C178        O179   1.270       .  A
C178        C494   1.478       .  S
O179       Al181   1.953       .  S
O180        C182   1.254       .  A
O180       Al181   1.885       .  S
Al181       O189   1.909       .  S
Al181       O191   1.945       .  S
Al181       O190   1.787       .  S
C182        O195   1.263       .  A
C182        C557   1.495       .  S
O183        C193   1.260       .  A
O183       Al185   1.907       .  S
O184        C197   1.271       .  A
O184       Al194   1.915       .  S
Al185       O198   1.930       .  S
Al185       O195   1.935       .  S
Al185       O190   1.780       .  S
O186        C193   1.252       .  A
O186       Al194   1.872       .  S
O187        C196   1.255       .  A
O187       Al194   1.898       .  S
O188       Al194   1.872       .  S
O189        C196   1.258       .  A
O190       Al194   1.793       .  S
O191        C192   1.270       .  A
C192        C627   1.500       .  S
C193        C477   1.462       .  S
C196        C484   1.469       .  S
C197        O198   1.271       .  A
C197        C504   1.484       .  S
O199        C214   1.261       .  A
O199       Al207   1.883       .  S
C200        O210   1.261       .  A
C200        O201   1.271       .  A
C200        C517   1.488       .  S
O201       Al203   1.952       .  S
O202        C204   1.254       .  A
O202       Al203   1.886       .  S
Al203       O211   1.911       .  S
Al203       O213   1.944       .  S
Al203       O212   1.789       .  S
C204        O217   1.260       .  A
C204        C454   1.492       .  S
O205        C215   1.260       .  A
O205       Al207   1.906       .  S
O206        C219   1.273       .  A
O206       Al216   1.923       .  S
Al207       O220   1.916       .  S
Al207       O217   1.926       .  S
Al207       O212   1.782       .  S
O208        C215   1.250       .  A
O208       Al216   1.867       .  S
O209        C218   1.254       .  A
O209       Al216   1.889       .  S
O210       Al216   1.879       .  S
O211        C218   1.258       .  A
O212       Al216   1.792       .  S
O213        C214   1.271       .  A
C214        C467   1.494       .  S
C215        C447   1.459       .  S
C218        C487   1.477       .  S
C219        O220   1.269       .  A
C219        C574   1.486       .  S
O221        C236   1.262       .  A
O221       Al229   1.902       .  S
C222        O232   1.259       .  A
C222        O223   1.267       .  A
C222        C564   1.496       .  S
O223       Al225   1.940       .  S
O224        C226   1.250       .  A
O224       Al225   1.851       .  S
Al225       O233   1.876       .  S
Al225       O235   1.938       .  S
Al225       O234   1.785       .  S
C226        O239   1.263       .  A
C226        C444   1.464       .  S
O227        C237   1.259       .  A
O227       Al229   1.905       .  S
O228        C241   1.270       .  A
O228       Al238   1.930       .  S
Al229       O242   1.909       .  S
Al229       O239   1.913       .  S
Al229       O234   1.780       .  S
O230        C237   1.264       .  A
O230       Al238   1.928       .  S
O231        C240   1.269       .  A
O231       Al238   1.959       .  S
O232       Al238   1.889       .  S
O233        C240   1.257       .  A
O234       Al238   1.788       .  S
O235        C236   1.266       .  A
C236        C527   1.498       .  S
C237        C414   1.480       .  S
C240        C437   1.480       .  S
C241        O242   1.265       .  A
C241        C427   1.491       .  S
O243        C258   1.262       .  A
O243       Al251   1.901       .  S
C244        O254   1.259       .  A
C244        O245   1.266       .  A
C244        C407   1.493       .  S
O245       Al247   1.934       .  S
O246        C248   1.251       .  A
O246       Al247   1.852       .  S
Al247       O255   1.870       .  S
Al247       O257   1.935       .  S
Al247       O256   1.780       .  S
C248        O261   1.264       .  A
C248        C474   1.469       .  S
O249        C259   1.260       .  A
O249       Al251   1.905       .  S
O250        C263   1.268       .  A
O250       Al260   1.919       .  S
Al251       O264   1.910       .  S
Al251       O261   1.923       .  S
Al251       O256   1.779       .  S
O252        C259   1.266       .  A
O252       Al260   1.934       .  S
O253        C262   1.271       .  A
O253       Al260   1.967       .  S
O254       Al260   1.890       .  S
O255        C262   1.257       .  A
O256       Al260   1.788       .  S
O257        C258   1.266       .  A
C258        C394   1.497       .  S
C259        C594   1.482   1_554  S
C262        C434   1.486       .  S
C263        O264   1.266       .  A
C263        C537   1.484       .  S
O265        C280   1.259       .  A
O265       Al273   1.878       .  S
C266        O276   1.260       .  A
C266        O267   1.274       .  A
C266        C677   1.498       .  S
O267       Al269   1.956       .  S
O268        C270   1.256       .  A
O268       Al269   1.896       .  S
Al269       O277   1.921       .  S
Al269       O279   1.960       .  S
Al269       O278   1.788       .  S
C270        O283   1.260       .  A
C270        C404   1.497       .  S
O271        C281   1.258       .  A
O271       Al273   1.898       .  S
O272        C285   1.269       .  A
O272       Al282   1.918       .  S
Al273       O286   1.913       .  S
Al273       O283   1.925       .  S
Al273       O278   1.789       .  S
O274        C281   1.253       .  A
O274       Al282   1.872       .  S
O275        C284   1.254       .  A
O275       Al282   1.890       .  S
O276       Al282   1.882       .  S
O277        C284   1.260       .  A
O278       Al282   1.796       .  S
O279        C280   1.273       .  A
C280        C507   1.499       .  S
C281        C374   1.453       .  S
C284        C384   1.481       .  S
C285        O286   1.267       .  A
C285        C817   1.482       .  S
O287        C302   1.259       .  A
O287       Al295   1.875       .  S
C288        O298   1.259       .  A
C288        O289   1.274       .  A
C288        C417   1.499       .  S
O289       Al291   1.956       .  S
O290        C292   1.255       .  A
O290       Al291   1.894       .  S
Al291       O299   1.922       .  S
Al291       O301   1.954       .  S
Al291       O300   1.785       .  S
C292        O305   1.259       .  A
C292        C634   1.493       .  S
O293        C303   1.259       .  A
O293       Al295   1.893   1_455  S
O294        C307   1.270       .  A
O294       Al304   1.917   1_655  S
Al295       O308   1.915       .  S
Al295       O305   1.921   1_655  S
Al295       O300   1.781   1_655  S
O296        C303   1.252       .  A
O296       Al304   1.876       .  S
O297        C306   1.253       .  A
O297       Al304   1.889       .  S
O298       Al304   1.874       .  S
O299        C306   1.260       .  A
O300       Al304   1.794       .  S
O301        C302   1.273   1_455  A
C302        C724   1.497       .  S
C303        C367   1.464       .  S
C306        C387   1.475       .  S
C307        O308   1.267       .  A
C307        C464   1.477       .  S
O309        C324   1.262       .  A
O309       Al317   1.905       .  S
C310        O320   1.258       .  A
C310        O311   1.265       .  A
C310        C457   1.493       .  S
O311       Al313   1.934       .  S
O312        C314   1.252       .  A
O312       Al313   1.850       .  S
Al313       O321   1.877       .  S
Al313       O323   1.932   1_655  S
Al313       O322   1.783       .  S
C314        O327   1.264   1_655  A
C314        C364   1.457       .  S
O315        C325   1.257       .  A
O315       Al317   1.898   1_655  S
O316        C329   1.269       .  A
O316       Al326   1.923       .  S
Al317       O330   1.907       .  S
Al317       O327   1.915       .  S
Al317       O322   1.781   1_455  S
O318        C325   1.262       .  A
O318       Al326   1.915       .  S
O319        C328   1.269       .  A
O319       Al326   1.952       .  S
O320       Al326   1.895       .  S
O321        C328   1.259       .  A
O322       Al326   1.789       .  S
O323        C324   1.264       .  A
C324        C424   1.500       .  S
C325        C737   1.475       .  S
C328        C354   1.473       .  S
C329        O330   1.265   1_655  A
C329        C644   1.486   1_655  S
O331        C346   1.263       .  A
O331       Al339   1.894       .  S
C332        O342   1.260       .  A
C332        O333   1.270       .  A
C332        C804   1.503       .  S
O333       Al335   1.940       .  S
O334        C336   1.247       .  A
O334       Al335   1.849       .  S
Al335       O343   1.874       .  S
Al335       O345   1.952       .  S
Al335       O344   1.781       .  S
C336        O349   1.261       .  A
C336        C377   1.469       .  S
O337        C347   1.261       .  A
O337       Al339   1.917       .  S
O338        C351   1.271       .  A
O338       Al348   1.920       .  S
Al339       O352   1.920       .  S
Al339       O349   1.911       .  S
Al339       O344   1.771       .  S
O340        C347   1.264       .  A
O340       Al348   1.922       .  S
O341        C350   1.266       .  A
O341       Al348   1.947       .  S
O342       Al348   1.889       .  S
O343        C350   1.256       .  A
O344       Al348   1.787       .  S
O345        C346   1.271       .  A
C346        C684   1.501       .  S
C347        C497   1.488       .  S
C350        C357   1.478       .  S
C351        O352   1.269       .  A
C351        C397   1.484       .  S
C353        C354   1.409       .  A
C353        C358   1.408       .  A
C353        F360   1.358       .  S
C354        C355   1.400       .  A
C355        C356   1.395       .  A
C355        F362   1.358       .  S
C356        C357   1.407       .  A
C356        F361   1.358       .  S
C357        C358   1.406       .  A
C358        F359   1.358       .  S
C363        C364   1.398   1_455  A
C363        C368   1.389       .  A
C363        F370   1.359       .  S
C364        C365   1.407       .  A
C365        C366   1.388       .  A
C365        F372   1.358       .  S
C366        C367   1.402   1_655  A
C366        F371   1.358       .  S
C367        C368   1.413       .  A
C368        F369   1.359       .  S
C373        C374   1.396       .  A
C373        C378   1.394   1_556  A
C373        F380   1.358       .  S
C374        C375   1.401       .  A
C375        C376   1.384   1_455  A
C375        F382   1.353       .  S
C376        C377   1.403   1_556  A
C376        F381   1.358   1_556  S
C377        C378   1.416   1_655  A
C378        F379   1.358       .  S
C383        C384   1.403       .  A
C383        C388   1.402       .  A
C383        F390   1.358       .  S
C384        C385   1.412       .  A
C385        C386   1.402       .  A
C385        F392   1.358       .  S
C386        C387   1.401       .  A
C386        F391   1.358       .  S
C387        C388   1.408       .  A
C388        F389   1.358       .  S
C393        C394   1.411       .  A
C393        C398   1.401       .  A
C393        F400   1.358       .  S
C394        C395   1.415       .  A
C395        C396   1.405       .  A
C395        F402   1.358       .  S
C396        C397   1.405       .  A
C396        F401   1.358       .  S
C397        C398   1.407       .  A
C398        F399   1.358       .  S
C403        C404   1.410   1_554  A
C403        C408   1.407       .  A
C403        F410   1.357       .  S
C404        C405   1.410   1_556  A
C405        C406   1.400       .  A
C405        F412   1.353   1_554  S
C406        C407   1.407       .  A
C406        F411   1.358       .  S
C407        C408   1.411       .  A
C408        F409   1.356       .  S
C413        C414   1.400       .  A
C413        C418   1.401       .  A
C413        F420   1.358       .  S
C414        C415   1.406       .  A
C415        C416   1.407       .  A
C415        F422   1.356       .  S
C416        C417   1.411       .  A
C416        F421   1.357       .  S
C417        C418   1.417       .  A
C418        F419   1.358       .  S
C423        C424   1.411       .  A
C423        C428   1.402       .  A
C423        F430   1.358       .  S
C424        C425   1.416       .  A
C425        C426   1.407       .  A
C425        F432   1.358       .  S
C426        C427   1.406       .  A
C426        F431   1.358       .  S
C427        C428   1.409       .  A
C428        F429   1.358       .  S
C433        C434   1.409       .  A
C433        C438   1.394       .  A
C433        F440   1.358       .  S
C434        C435   1.407       .  A
C435        C436   1.412       .  A
C435        F442   1.357       .  S
C436        C437   1.411       .  A
C436        F441   1.358       .  S
C437        C438   1.401       .  A
C438        F439   1.358       .  S
C443        C444   1.401       .  A
C443        C448   1.385       .  A
C443        F450   1.359       .  S
C444        C445   1.413       .  A
C445        C446   1.392       .  A
C445        F452   1.357       .  S
C446        C447   1.397       .  A
C446        F451   1.358       .  S
C447        C448   1.410       .  A
C448        F449   1.359       .  S
C453        C454   1.411       .  A
C453        C458   1.401       .  A
C453        F460   1.358       .  S
C454        C455   1.408       .  A
C455        C456   1.406       .  A
C455        F462   1.358       .  S
C456        C457   1.412       .  A
C456        F461   1.357       .  S
C457        C458   1.408       .  A
C458        F459   1.358       .  S
C463        C464   1.407       .  A
C463        C468   1.406       .  A
C463        F470   1.358       .  S
C464        C465   1.403       .  A
C465        C466   1.399       .  A
C465        F472   1.358       .  S
C466        C467   1.413       .  A
C466        F471   1.358       .  S
C467        C468   1.410       .  A
C468        F469   1.357       .  S
C473        C474   1.402   1_556  A
C473        C478   1.389       .  A
C473        F480   1.358       .  S
C474        C475   1.414       .  A
C475        C476   1.392       .  A
C475        F482   1.357       .  S
C476        C477   1.397   1_554  A
C476        F481   1.358       .  S
C477        C478   1.409       .  A
C478        F479   1.359       .  S
C483        C484   1.400       .  A
C483        C488   1.398       .  A
C483        F490   1.358       .  S
C484        C485   1.407       .  A
C485        C486   1.401       .  A
C485        F492   1.358       .  S
C486        C487   1.405       .  A
C486        F491   1.358       .  S
C487        C488   1.410       .  A
C488        F489   1.358       .  S
C493        C494   1.405       .  A
C493        C498   1.392   1_556  A
C493        F500   1.358       .  S
C494        C495   1.404       .  A
C495        C496   1.411       .  A
C495        F502   1.357       .  S
C496        C497   1.415   1_556  A
C496        F501   1.357       .  S
C497        C498   1.406       .  A
C498        F499   1.358       .  S
C503        C504   1.402       .  A
C503        C508   1.402       .  A
C503        F510   1.358       .  S
C504        C505   1.410       .  A
C505        C506   1.408       .  A
C505        F512   1.358       .  S
C506        C507   1.410       .  A
C506        F511   1.357       .  S
C507        C508   1.415       .  A
C508        F509   1.358       .  S
C513        C514   1.398       .  A
C513        C518   1.392       .  A
C513        F520   1.359       .  S
C514        C515   1.411       .  A
C515        C516   1.413       .  A
C515        F522   1.358       .  S
C516        C517   1.408       .  A
C516        F521   1.357       .  S
C517        C518   1.410       .  A
C518        F519   1.354       .  S
C523        C524   1.405       .  A
C523        C528   1.405       .  A
C523        F530   1.358       .  S
C524        C525   1.406       .  A
C525        C526   1.403       .  A
C525        F532   1.358       .  S
C526        C527   1.412       .  A
C526        F531   1.358       .  S
C527        C528   1.414       .  A
C528        F529   1.357       .  S
C533        C534   1.410       .  A
C533        C538   1.400       .  A
C533        F540   1.358       .  S
C534        C535   1.414       .  A
C535        C536   1.404       .  A
C535        F542   1.358       .  S
C536        C537   1.404       .  A
C536        F541   1.358       .  S
C537        C538   1.407       .  A
C538        F539   1.358       .  S
C543        C544   1.411       .  A
C543        C548   1.390       .  A
C543        F550   1.359       .  S
C544        C545   1.407       .  A
C545        C546   1.409       .  A
C545        F552   1.357       .  S
C546        C547   1.410       .  A
C546        F551   1.357       .  S
C547        C548   1.402       .  A
C548        F549   1.359       .  S
C553        C554   1.413       .  A
C553        C558   1.406       .  A
C553        F560   1.357       .  S
C554        C555   1.408       .  A
C555        C556   1.401       .  A
C555        F562   1.357       .  S
C556        C557   1.412   1_554  A
C556        F561   1.358   1_554  S
C557        C558   1.408   1_556  A
C558        F559   1.358       .  S
C563        C564   1.413       .  A
C563        C568   1.410       .  A
C563        F570   1.357       .  S
C564        C565   1.407       .  A
C565        C566   1.400       .  A
C565        F572   1.358       .  S
C566        C567   1.409       .  A
C566        F571   1.353       .  S
C567        C568   1.411       .  A
C568        F569   1.358       .  S
C573        C574   1.404       .  A
C573        C578   1.398       .  A
C573        F580   1.359       .  S
C574        C575   1.410       .  A
C575        C576   1.410       .  A
C575        F582   1.357       .  S
C576        C577   1.412       .  A
C576        F581   1.357       .  S
C577        C578   1.415       .  A
C578        F579   1.358       .  S
C583        C584   1.402       .  A
C583        C588   1.390   1_565  A
C583        F590   1.358       .  S
C584        C585   1.410   1_565  A
C585        C586   1.387       .  A
C585        F592   1.359       .  S
C586        C587   1.401       .  A
C586        F591   1.358       .  S
C587        C588   1.409       .  A
C588        F589   1.358   1_545  S
C593        C594   1.401       .  A
C593        C598   1.403       .  A
C593        F600   1.358       .  S
C594        C595   1.405       .  A
C595        C596   1.405       .  A
C595        F602   1.354       .  S
C596        C597   1.409       .  A
C596        F601   1.357       .  S
C597        C598   1.417       .  A
C598        F599   1.357       .  S
C603        C604   1.397       .  A
C603        C608   1.388   1_556  A
C603        F610   1.358   1_556  S
C604        C605   1.410   1_545  A
C605        C606   1.389       .  A
C605        F612   1.358       .  S
C606        C607   1.400   1_566  A
C606        F611   1.358       .  S
C607        C608   1.412       .  A
C608        F609   1.358       .  S
C613        C614   1.410       .  A
C613        C618   1.401       .  A
C613        F620   1.358       .  S
C614        C615   1.401       .  A
C615        C616   1.400       .  A
C615        F622   1.358       .  S
C616        C617   1.409       .  A
C616        F621   1.358       .  S
C617        C618   1.402       .  A
C618        F619   1.358       .  S
C623        C624   1.407       .  A
C623        C628   1.408       .  A
C623        F630   1.358       .  S
C624        C625   1.404       .  A
C625        C626   1.402       .  A
C625        F632   1.358       .  S
C626        C627   1.413       .  A
C626        F631   1.358       .  S
C627        C628   1.413       .  A
C628        F629   1.357       .  S
C633        C634   1.409       .  A
C633        C638   1.400       .  A
C633        F640   1.356       .  S
C634        C635   1.409       .  A
C635        C636   1.405       .  A
C635        F642   1.358       .  S
C636        C637   1.412       .  A
C636        F641   1.358       .  S
C637        C638   1.407       .  A
C638        F639   1.358       .  S
C643        C644   1.407       .  A
C643        C648   1.401       .  A
C643        F650   1.358       .  S
C644        C645   1.405   1_455  A
C645        C646   1.406   1_655  A
C645        F652   1.358       .  S
C646        C647   1.415       .  A
C646        F651   1.358   1_455  S
C647        C648   1.410       .  A
C648        F649   1.358       .  S
C653        C654   1.402       .  A
C653        C658   1.404       .  A
C653        F660   1.358   1_565  S
C654        C655   1.405       .  A
C655        C656   1.403       .  A
C655        F662   1.355       .  S
C656        C657   1.408       .  A
C656        F661   1.357       .  S
C657        C658   1.415       .  A
C658        F659   1.358   1_565  S
C663        C664   1.416       .  A
C663        C668   1.408       .  A
C663        F670   1.358       .  S
C664        C665   1.410       .  A
C665        C666   1.401       .  A
C665        F672   1.358       .  S
C666        C667   1.408       .  A
C666        F671   1.358       .  S
C667        C668   1.406       .  A
C668        F669   1.358   1_545  S
C673        C674   1.402       .  A
C673        C678   1.405       .  A
C673        F680   1.358   1_455  S
C674        C675   1.406       .  A
C675        C676   1.404       .  A
C675        F682   1.354   1_556  S
C676        C677   1.408       .  A
C676        F681   1.356       .  S
C677        C678   1.415       .  A
C678        F679   1.356       .  S
C683        C684   1.414       .  A
C683        C688   1.409   1_655  A
C683        F690   1.357   1_655  S
C684        C685   1.412       .  A
C685        C686   1.400       .  A
C685        F692   1.358       .  S
C686        C687   1.408       .  A
C686        F691   1.358       .  S
C687        C688   1.408   1_655  A
C688        F689   1.357       .  S
C693        C694   1.409       .  A
C693        C698   1.402       .  A
C693        F700   1.358       .  S
C694        C695   1.416       .  A
C695        C696   1.404   1_565  A
C695        F702   1.358   1_565  S
C696        C697   1.403   1_545  A
C696        F701   1.358       .  S
C697        C698   1.407       .  A
C698        F699   1.358       .  S
C703        C704   1.401       .  A
C703        C708   1.397       .  A
C703        F710   1.358       .  S
C704        C705   1.409       .  A
C705        C706   1.410       .  A
C705        F712   1.358       .  S
C706        C707   1.406       .  A
C706        F711   1.357       .  S
C707        C708   1.408       .  A
C708        F709   1.358       .  S
C713        C714   1.412       .  A
C713        C718   1.407       .  A
C713        F720   1.357       .  S
C714        C715   1.408       .  A
C715        C716   1.400       .  A
C715        F722   1.358       .  S
C716        C717   1.409   1_554  A
C716        F721   1.356   1_554  S
C717        C718   1.410   1_556  A
C718        F719   1.358   1_565  S
C723        C724   1.416       .  A
C723        C728   1.400       .  A
C723        F730   1.358       .  S
C724        C725   1.410       .  A
C725        C726   1.406       .  A
C725        F732   1.357   1_655  S
C726        C727   1.408       .  A
C726        F731   1.358       .  S
C727        C728   1.402       .  A
C728        F729   1.358       .  S
C733        C734   1.407       .  A
C733        C738   1.400       .  A
C733        F740   1.355       .  S
C734        C735   1.414       .  A
C735        C736   1.401       .  A
C735        F742   1.358       .  S
C736        C737   1.402       .  A
C736        F741   1.358   1_655  S
C737        C738   1.404       .  A
C738        F739   1.356       .  S
C743        C744   1.401       .  A
C743        C748   1.395   1_655  A
C743        F750   1.358       .  S
C744        C745   1.399   1_545  A
C745        C746   1.391   1_655  A
C745        F752   1.359       .  S
C746        C747   1.405       .  A
C746        F751   1.357       .  S
C747        C748   1.405   1_565  A
C748        F749   1.358       .  S
C753        C754   1.410       .  A
C753        C758   1.396       .  A
C753        F760   1.355       .  S
C754        C755   1.412       .  A
C755        C756   1.409       .  A
C755        F762   1.358       .  S
C756        C757   1.413       .  A
C756        F761   1.357       .  S
C757        C758   1.410       .  A
C758        F759   1.359       .  S
C763        C764   1.403       .  A
C763        C768   1.399       .  A
C763        F770   1.358       .  S
C764        C765   1.408       .  A
C765        C766   1.407   1_565  A
C765        F772   1.358   1_565  S
C766        C767   1.411   1_545  A
C766        F771   1.357       .  S
C767        C768   1.413       .  A
C768        F769   1.358       .  S
C773        C774   1.408       .  A
C773        C778   1.404       .  A
C773        F780   1.358       .  S
C774        C775   1.404       .  A
C775        C776   1.395       .  A
C775        F782   1.351       .  S
C776        C777   1.404       .  A
C776        F781   1.357   1_556  S
C777        C778   1.408       .  A
C778        F779   1.357       .  S
C783        C784   1.412   1_655  A
C783        C788   1.389   1_545  A
C783        F790   1.359       .  S
C784        C785   1.400   1_556  A
C785        C786   1.395       .  A
C785        F792   1.358       .  S
C786        C787   1.412   1_545  A
C786        F791   1.358       .  S
C787        C788   1.400   1_454  A
C788        F789   1.358       .  S
C793        C794   1.416       .  A
C793        C798   1.394       .  A
C793        F800   1.358       .  S
C794        C795   1.409       .  A
C795        C796   1.406       .  A
C795        F802   1.357       .  S
C796        C797   1.406       .  A
C796        F801   1.358       .  S
C797        C798   1.395       .  A
C798        F799   1.358       .  S
C803        C804   1.414       .  A
C803        C808   1.399   1_554  A
C803        F810   1.358       .  S
C804        C805   1.411       .  A
C805        C806   1.411       .  A
C805        F812   1.357       .  S
C806        C807   1.414   1_554  A
C806        F811   1.357   1_655  S
C807        C808   1.410       .  A
C808        F809   1.357       .  S
C813        C814   1.412       .  A
C813        C818   1.398       .  A
C813        F820   1.358       .  S
C814        C815   1.412       .  A
C815        C816   1.407       .  A
C815        F822   1.358   1_455  S
C816        C817   1.408       .  A
C816        F821   1.358       .  S
C817        C818   1.404       .  A
C818        F819   1.358       .  S
C823        C824   1.410       .  A
C823        C828   1.408       .  A
C823        F830   1.357   1_545  S
C824        C825   1.416       .  A
C825        C826   1.398       .  A
C825        F832   1.358       .  S
C826        C827   1.401       .  A
C826        F831   1.358       .  S
C827        C828   1.409       .  A
C828        F829   1.358       .  S
