geometry optimzed in LAMMPS
_audit_creation_date              2020-11-30 
_audit_creation_method            'lammps2cif' 
_symmetry_space_group_name_H-M    'P1' 
_symmetry_Int_Tables_number       1 
_symmetry_cell_setting            triclinic 
loop_ 
_symmetry_equiv_pos_as_xyz 
  x,y,z 
_cell_length_a                    44.89950904 
_cell_length_b                    44.78741899686628 
_cell_length_c                    40.18145833411054 
_cell_angle_alpha                 90.00324420226275 
_cell_angle_beta                  90.1926132125046 
_cell_angle_gamma                 120.39241338437198 
loop_ 
_atom_site_label 
_atom_site_type_symbol 
_atom_site_fract_x 
_atom_site_fract_y 
_atom_site_fract_z 
_atom_site_charge 
In1        In  0.13151082  0.62202633  0.41651377     1.36900
C2          C  0.13196614  0.59548846  0.47520424     0.77600
O3          O  0.18890669  0.65509361  0.42316328    -0.60800
O4          O  0.15951264  0.67948655  0.42786658    -0.51700
C5          C  0.13830441  0.59764917  0.35749152     0.70300
O6          O  0.13437080  0.58215875  0.38470483    -0.46600
C7          C  0.06594493  0.60712689  0.41476047     0.75000
O8          O  0.13682286  0.58366932  0.44843852    -0.58400
O9          O  0.08983172  0.63445767  0.40175331    -0.48500
O10         O  0.12622840  0.62005677  0.47137276    -0.54900
C11         C  0.18897710  0.68256272  0.43017007     0.85200
O12         O  0.13901823  0.62605118  0.36071914    -0.56800
O13         O  0.07570506  0.58803948  0.42783865    -0.60100
In14       In  0.37710871  0.85908356  0.48985724     1.36900
C15         C  0.40169993  0.85606263  0.43130080     0.77600
O16         O  0.34353790  0.80210928  0.48471584    -0.60800
O17         O  0.31939209  0.83205137  0.48107028    -0.51700
C18         C  0.39765414  0.85056548  0.04925174     0.70300
O19         O  0.41014876  0.84745111  0.02239254    -0.46600
C20         C  0.40068817  0.92685505  0.48722930     0.75000
O21         O  0.41397017  0.85210936  0.45812612    -0.58400
O22         O  0.36894731  0.90535499  0.49175078    -0.48500
O23         O  0.37703850  0.86159896  0.43501328    -0.54900
C24         C  0.31635093  0.80248074  0.47806508     0.85200
O25         O  0.37364660  0.85726530  0.04535563    -0.56800
O26         O  0.41950297  0.91318563  0.98578796    -0.60100
In27       In  0.47966876  0.86047691  0.24119061     1.36900
C28         C  0.45148273  0.85692959  0.29926905     0.77600
O29         O  0.45700160  0.80358907  0.24582809    -0.60800
O30         O  0.51132192  0.83477352  0.25012138    -0.51700
C31         C  0.45099497  0.85199265  0.18141457     0.70300
O32         O  0.43481064  0.84697992  0.20825561    -0.46600
C33         C  0.52224281  0.92884787  0.24519286     0.75000
O34         O  0.43525452  0.85265854  0.27232716    -0.58400
O35         O  0.53345399  0.90838070  0.24001421    -0.48500
O36         O  0.48178076  0.86244421  0.29615065    -0.54900
C37         C  0.48498774  0.80476905  0.25231671     0.85200
O38         O  0.48230402  0.86043367  0.18517418    -0.56800
O39         O  0.48981025  0.91400979  0.24628886    -0.60100
In40       In  0.47407964  0.62698210  0.33440100     1.36900
C41         C  0.44776037  0.59895700  0.27567178     0.77600
O42         O  0.45361445  0.66209972  0.32368519    -0.60800
O43         O  0.50790985  0.68425114  0.32447126    -0.51700
C44         C  0.44301699  0.60709350  0.39336261     0.70300
O45         O  0.42797748  0.59481347  0.36604504    -0.46600
C46         C  0.51899117  0.60522337  0.34089830     0.75000
O47         O  0.43059865  0.58859399  0.30221037    -0.58400
O48         O  0.52860479  0.63703875  0.33990897    -0.48500
O49         O  0.47839273  0.62332815  0.27945982    -0.54900
C50         C  0.48268991  0.68826214  0.31764355     0.85200
O51         O  0.47360830  0.63208008  0.39026570    -0.56800
O52         O  0.48689681  0.58513224  0.33858965    -0.60100
In53       In  0.37311817  0.51756550  0.08421005     1.36900
C54         C  0.39892083  0.54512297  0.14330275     0.77600
O55         O  0.34077224  0.54067757  0.09564510    -0.60800
O56         O  0.31501740  0.48618400  0.08949521    -0.51700
C57         C  0.39244040  0.54829567  0.02469964     0.70300
O58         O  0.40583546  0.56294709  0.05187229    -0.46600
C59         C  0.39619593  0.47331990  0.08590736     0.75000
O60         O  0.41013368  0.56155704  0.11641873    -0.58400
O61         O  0.36417115  0.46264374  0.08480749    -0.48500
O62         O  0.37505503  0.51415893  0.13947138    -0.54900
C63         C  0.31281711  0.51228605  0.09768146     0.85200
O64         O  0.36804935  0.51736520  0.02808580    -0.56800
O65         O  0.41514667  0.50557180  0.08325787    -0.60100
In66       In  0.13762400  0.51655393  0.16536044     1.36900
C67         C  0.13389055  0.53900228  0.10487164     0.77600
O68         O  0.19463526  0.54119943  0.15823352    -0.60800
O69         O  0.16471324  0.48646762  0.15612585    -0.51700
C70         C  0.14446751  0.54604715  0.22527074     0.70300
O71         O  0.14409633  0.56002794  0.19816667    -0.46600
C72         C  0.07180872  0.46911549  0.17038806     0.75000
O73         O  0.14535407  0.55869914  0.13002668    -0.58400
O74         O  0.09501104  0.46107269  0.17260006    -0.48500
O75         O  0.12430041  0.50791655  0.11117990    -0.54900
C76         C  0.19411008  0.51324733  0.15279718     0.85200
O77         O  0.14284895  0.51724065  0.22144773    -0.56800
O78         O  0.08247937  0.50079418  0.16623644    -0.60100
In79       In  0.61876782  0.49018190  0.33278257     1.36900
C80         C  0.59733507  0.46322460  0.39292524     0.77600
O81         O  0.65337010  0.46789762  0.33412927    -0.60800
O82         O  0.67693814  0.52198705  0.34024866    -0.51700
C83         C  0.59347528  0.45947104  0.27353095     0.70300
O84         O  0.58239487  0.44448844  0.30105354    -0.46600
C85         C  0.59671882  0.53553368  0.33569964     0.75000
O86         O  0.58406981  0.44638808  0.36639138    -0.58400
O87         O  0.62698987  0.54454783  0.32620693    -0.48500
O88         O  0.62168395  0.49369476  0.38822275    -0.54900
C89         C  0.68066019  0.49579508  0.34070343     0.85200
O90         O  0.61803163  0.49036406  0.27652356    -0.56800
O91         O  0.57850340  0.50392971  0.34275258    -0.60100
In92       In  0.85300845  0.48812749  0.41597476     1.36900
C93         C  0.85530988  0.46086873  0.35841525     0.77600
O94         O  0.79685765  0.46666249  0.40460348    -0.60800
O95         O  0.82933788  0.52099859  0.40351431    -0.51700
C96         C  0.84476265  0.46025769  0.47674912     0.70300
O97         O  0.84168046  0.44388697  0.45025996    -0.46600
C98         C  0.91941773  0.53521562  0.41865397     0.75000
O99         O  0.84584891  0.44325586  0.38486309    -0.58400
O100        O  0.89643442  0.54305475  0.42368993    -0.48500
O101        O  0.86375198  0.49214859  0.36193964    -0.54900
C102        C  0.79968366  0.49546958  0.39781687     0.85200
O103        O  0.85030882  0.49052295  0.47199177    -0.56800
O104        O  0.90838558  0.50367149  0.41306355    -0.60100
In105      In  0.85995538  0.38504152  0.16713628     1.36900
C106        C  0.85879002  0.41120482  0.22618480     0.77600
O107        O  0.80310681  0.35194030  0.17296784    -0.60800
O108        O  0.83233675  0.32753695  0.17944997    -0.51700
C109        C  0.85274771  0.40955430  0.10823544     0.70300
O110        O  0.85829982  0.42569519  0.13532846    -0.46600
C111        C  0.92551680  0.40066280  0.16561112     0.75000
O112        O  0.85454869  0.42296100  0.19913887    -0.58400
O113        O  0.90157907  0.37224376  0.15420823    -0.48500
O114        O  0.86397104  0.38622185  0.22253093    -0.54900
C115        C  0.80287213  0.32468290  0.18103605     0.85200
O116        O  0.84992455  0.38016110  0.11139732    -0.56800
O117        O  0.91576404  0.42053021  0.17667542    -0.60100
In118      In  0.61901615  0.14601175  0.24348510     1.36900
C119        C  0.59369349  0.14419842  0.18359577     0.77600
O120        O  0.65434730  0.20253080  0.23733850    -0.60800
O121        O  0.67642395  0.17067844  0.23395164    -0.51700
C122        C  0.59743895  0.15790864  0.30064854     0.70300
O123        O  0.58454714  0.15832356  0.27290054    -0.46600
C124        C  0.59356549  0.07839106  0.25167044     0.75000
O125        O  0.58427938  0.15355524  0.20913412    -0.58400
O126        O  0.62567619  0.09967285  0.25416691    -0.48500
O127        O  0.61646790  0.13616228  0.18889073    -0.54900
C128        C  0.68090504  0.20079097  0.23103767     0.85200
O129        O  0.62290133  0.15320719  0.29891259    -0.56800
O130        O  0.57588240  0.09210792  0.24481011    -0.60100
In131      In  0.51626914  0.14292880  0.99189802     1.36900
C132        C  0.54275479  0.14052128  0.05026023     0.77600
O133        O  0.53875625  0.19885520  0.00448945    -0.60800
O134        O  0.48438526  0.16794800  0.00205918    -0.51700
C135        C  0.54498818  0.15719723  0.43182362     0.70300
O136        O  0.55952458  0.15392809  0.45730424    -0.46600
C137        C  0.47165608  0.07578767  0.48423700     0.75000
O138        O  0.56095853  0.15283263  0.02452019    -0.58400
O139        O  0.46167128  0.09720414  0.98822477    -0.48500
O140        O  0.51091758  0.12846974  0.04543473    -0.54900
C141        C  0.51019685  0.19727153  0.00880030     0.85200
O142        O  0.51585075  0.15407836  0.43736273    -0.56800
O143        O  0.50394629  0.08895945  0.48289373    -0.60100
In144      In  0.51421169  0.37733529  0.08111621     1.36900
C145        C  0.53953325  0.40481944  0.02187303     0.77600
O146        O  0.53828607  0.34466406  0.07495310    -0.60800
O147        O  0.48429569  0.31994220  0.06817986    -0.51700
C148        C  0.54230395  0.40026360  0.14130874     0.70300
O149        O  0.55756315  0.41380637  0.11441082    -0.46600
C150        C  0.46806123  0.39749584  0.08737903     0.75000
O151        O  0.55836570  0.41181449  0.04747295    -0.58400
O152        O  0.45885108  0.36567352  0.08655668    -0.48500
O153        O  0.50789658  0.38488191  0.02730548    -0.54900
C154        C  0.51124789  0.31782288  0.06553541     0.85200
O155        O  0.51352518  0.37271691  0.13730439    -0.56800
O156        O  0.50013889  0.41784251  0.08481400    -0.60100
C157        C  0.48073097  0.25488336  0.05129735    -0.05700
C158        C  0.51147097  0.28719189  0.05093621     0.00200
C159        C  0.54091862  0.28997825  0.03468149    -0.08400
C160        C  0.53867022  0.26008792  0.02066541    -0.05800
C161        C  0.50827130  0.22757099  0.02178054     0.00200
C162        C  0.47856014  0.22491110  0.03715434    -0.08300
C163        C  0.44482558  0.19064806  0.03933907     0.62100
H164        H  0.45836499  0.25322463  0.06312237     0.12800
H165        H  0.56110867  0.26193665  0.00877864     0.12800
C166        C  0.57466938  0.32427941  0.03131312     0.62300
F167        F  0.41968378  0.19376894  0.05614722    -0.22800
F168        F  0.45004962  0.16671824  0.05618767    -0.20200
F169        F  0.43247554  0.17856095  0.00764490    -0.19800
F170        F  0.58954662  0.33572898  0.06235585    -0.19900
F171        F  0.56855558  0.34867915  0.01673824    -0.20200
F172        F  0.59835922  0.32141243  0.01162243    -0.22900
C173        C  0.60151004  0.14812207  0.12281850    -0.05700
C174        C  0.57979991  0.14298596  0.14992005     0.00200
C175        C  0.54562796  0.13570697  0.14411432    -0.08400
C176        C  0.53500178  0.13531798  0.11114147    -0.05800
C177        C  0.55686927  0.14106867  0.08389417     0.00200
C178        C  0.59071132  0.14713363  0.08975644    -0.08300
C179        C  0.61533057  0.15193659  0.06166760     0.62100
H180        H  0.62738805  0.15325297  0.12783277     0.12800
H181        H  0.50922227  0.13062897  0.10646811     0.12800
C182        C  0.51987645  0.12693753  0.17221157     0.62300
F183        F  0.64556751  0.15440303  0.07330609    -0.22800
F184        F  0.62420285  0.18204360  0.04448956    -0.20200
F185        F  0.59979617  0.12390044  0.04024087    -0.19800
F186        F  0.52962020  0.15581916  0.19184807    -0.19900
F187        F  0.51842062  0.10060293  0.19144682    -0.20200
F188        F  0.48689007  0.11580683  0.16034822    -0.22900
C189        C  0.53682206  0.14997388  0.37078840    -0.05700
C190        C  0.55981224  0.16214827  0.39789663     0.00200
C191        C  0.59571320  0.17700018  0.39199695    -0.08400
C192        C  0.60682350  0.17582799  0.35961691    -0.05800
C193        C  0.58363121  0.16172144  0.33286071     0.00200
C194        C  0.54803247  0.14974624  0.33815562    -0.08300
C195        C  0.52164871  0.13575272  0.31000742     0.62100
H196        H  0.50958018  0.13949134  0.37556034     0.12800
H197        H  0.63399262  0.18559817  0.35503176     0.12800
C198        C  0.62245114  0.19451475  0.41938515     0.62300
F199        F  0.48841160  0.12392970  0.32127378    -0.22800
F200        F  0.52199232  0.10839469  0.29450839    -0.20200
F201        F  0.52929652  0.16166217  0.28707696    -0.19800
F202        F  0.62171485  0.16990122  0.44066520    -0.19900
F203        F  0.61573926  0.21699711  0.43702068    -0.20200
F204        F  0.65551466  0.21359738  0.40664653    -0.22900
C205        C  0.77440513  0.26479605  0.20467700    -0.05700
C206        C  0.77110494  0.29267607  0.19286995     0.00200
C207        C  0.73808791  0.28988239  0.19432017    -0.08400
C208        C  0.71007046  0.25948071  0.20715344    -0.05800
C209        C  0.71327630  0.23172042  0.21896555     0.00200
C210        C  0.74609345  0.23433331  0.21780083    -0.08300
C211        C  0.75154184  0.20560831  0.23084524     0.62100
H212        H  0.79955744  0.26711912  0.20381416     0.12800
H213        H  0.68492970  0.25715725  0.20792512     0.12800
C214        C  0.73174628  0.31863448  0.18288149     0.62300
F215        F  0.78597582  0.21482886  0.23029832    -0.22800
F216        F  0.73336859  0.17628984  0.21138275    -0.20200
F217        F  0.74029797  0.19806768  0.26343202    -0.19800
F218        F  0.74128714  0.32662554  0.14992671    -0.19900
F219        F  0.75045261  0.34764346  0.20263625    -0.20200
F220        F  0.69733200  0.30928489  0.18515391    -0.22900
C221        C  0.86456173  0.40980903  0.28744076    -0.05700
C222        C  0.85782356  0.42485525  0.25972066     0.00200
C223        C  0.85009276  0.45160385  0.26507450    -0.08400
C224        C  0.84932542  0.46191292  0.29787323    -0.05800
C225        C  0.85580019  0.44673330  0.32534740     0.00200
C226        C  0.86369861  0.42023917  0.32027469    -0.08300
C227        C  0.87190439  0.40355068  0.34909850     0.62100
H228        H  0.87048042  0.38949242  0.28327428     0.12800
H229        H  0.84335023  0.48220532  0.30245537     0.12800
C230        C  0.84270432  0.46955750  0.23683060     0.62300
F231        F  0.88255525  0.38110651  0.33823616    -0.22800
F232        F  0.84278862  0.38483478  0.36841362    -0.20200
F233        F  0.89815216  0.42879067  0.36841668    -0.19800
F234        F  0.81451720  0.44556207  0.21857037    -0.19900
F235        F  0.87132690  0.48626178  0.21649681    -0.20200
F236        F  0.83518976  0.49415906  0.24834332    -0.22900
C237        C  0.86505652  0.47004959  0.03526021    -0.05700
C238        C  0.84441762  0.44630683  0.01055604     0.00200
C239        C  0.82532383  0.41053930  0.01857187    -0.08400
C240        C  0.82848327  0.39990631  0.05084358    -0.05800
C241        C  0.84973622  0.42359889  0.07538670     0.00200
C242        C  0.86822781  0.45950066  0.06750836    -0.08300
C243        C  0.89223614  0.48673887  0.09237195     0.62100
H244        H  0.87953527  0.49722503  0.02876587     0.12800
H245        H  0.81436644  0.37266544  0.05714310     0.12800
C246        C  0.80283728  0.38327017  0.49302026     0.62300
F247        F  0.90954970  0.51952811  0.07850935    -0.22800
F248        F  0.91671534  0.47895595  0.10350351    -0.20200
F249        F  0.87342018  0.48781466  0.11903157    -0.19800
F250        F  0.82275348  0.38102487  0.46807247    -0.19900
F251        F  0.77995873  0.39205516  0.47939067    -0.20200
F252        F  0.78367251  0.35080944  0.50721197    -0.22900
C253        C  0.73722943  0.52570988  0.37032660    -0.05700
C254        C  0.71326979  0.49710002  0.35128666     0.00200
C255        C  0.71941096  0.46922505  0.34607695    -0.08400
C256        C  0.74803084  0.47031591  0.36171259    -0.05800
C257        C  0.77095648  0.49805167  0.38203663     0.00200
C258        C  0.76594040  0.52667677  0.38597772    -0.08300
C259        C  0.78968113  0.55731939  0.40782234     0.62100
H260        H  0.73253153  0.54693389  0.37402974     0.12800
H261        H  0.75254417  0.44891060  0.35840074     0.12800
C262        C  0.69595261  0.43795502  0.32463661     0.62300
F263        F  0.77785650  0.58031558  0.41135243    -0.22800
F264        F  0.82224427  0.57505995  0.39390446    -0.20200
F265        F  0.79178415  0.54580381  0.43921198    -0.19800
F266        F  0.68951170  0.44857231  0.29448909    -0.19900
F267        F  0.66518517  0.41726679  0.34103802    -0.20200
F268        F  0.71071818  0.41794983  0.31783458    -0.22900
C269        C  0.58673089  0.44813126  0.48700898    -0.05700
C270        C  0.55358595  0.41873688  0.48853234     0.00200
C271        C  0.53561088  0.40330565  0.45842869    -0.08400
C272        C  0.55132809  0.41864892  0.42805072    -0.05800
C273        C  0.58415380  0.44853435  0.42649927     0.00200
C274        C  0.60260272  0.46334267  0.45659242    -0.08300
C275        C  0.63910444  0.49441934  0.45713371     0.62100
H276        H  0.60012011  0.45976858  0.01009507     0.12800
H277        H  0.53758195  0.40752816  0.40500316     0.12800
C278        C  0.50019757  0.37063776  0.45787056     0.62300
F279        F  0.65284502  0.50209705  0.48900304    -0.22800
F280        F  0.63915042  0.52337640  0.44513845    -0.20200
F281        F  0.66043733  0.48757818  0.43783508    -0.19800
F282        F  0.47605817  0.37741780  0.47170615    -0.19900
F283        F  0.50118348  0.34463767  0.47555945    -0.20200
F284        F  0.48933827  0.35850120  0.42583587    -0.22900
C285        C  0.54403722  0.39433752  0.20287867    -0.05700
C286        C  0.55624251  0.41590731  0.17480443     0.00200
C287        C  0.57946544  0.45193952  0.17965451    -0.08400
C288        C  0.59065162  0.46450697  0.21218899    -0.05800
C289        C  0.57914234  0.44291191  0.24029512     0.00200
C290        C  0.55473477  0.40704576  0.23558404    -0.08300
C291        C  0.53987555  0.38189735  0.26452900     0.62100
H292        H  0.52585715  0.36710395  0.19892270     0.12800
H293        H  0.60867327  0.49180584  0.21589710     0.12800
C294        C  0.59201292  0.47758103  0.15097298     0.62300
F295        F  0.51660262  0.34854785  0.25404308    -0.22800
F296        F  0.52250498  0.39208823  0.28582567    -0.20200
F297        F  0.56621048  0.38093692  0.28153517    -0.19800
F298        F  0.56409989  0.47436789  0.13315402    -0.19900
F299        F  0.61290728  0.47145295  0.13029254    -0.20200
F300        F  0.61105915  0.51152390  0.16191556    -0.22900
C301        C  0.01778939  0.42935148  0.14143742    -0.05700
C302        C  0.03467348  0.44410660  0.17157602     0.00200
C303        C  0.01536562  0.44086073  0.20035571    -0.08400
C304        C  0.97922642  0.42360942  0.19778948    -0.05800
C305        C  0.96226654  0.41074178  0.16718155     0.00200
C306        C  0.98161946  0.41315970  0.13853037    -0.08300
C307        C  0.96454275  0.40146007  0.10466355     0.62100
H308        H  0.03338588  0.43300399  0.11965054     0.12800
H309        H  0.96397834  0.42188862  0.21932312     0.12800
C310        C  0.03316758  0.45723690  0.23309125     0.62300
F311        F  0.98840535  0.40807586  0.07982138    -0.22800
F312        F  0.94726496  0.41882372  0.09680948    -0.20200
F313        F  0.94132414  0.36625941  0.10513524    -0.19800
F314        F  0.05168402  0.49288384  0.22995253    -0.19900
F315        F  0.05554791  0.44574815  0.24162839    -0.20200
F316        F  0.00974572  0.44890429  0.25872946    -0.22900
C317        C  0.39627288  0.41848833  0.07445272    -0.05700
C318        C  0.41114107  0.45069023  0.09071172     0.00200
C319        C  0.44094839  0.46147585  0.11081797    -0.08400
C320        C  0.45742726  0.44198428  0.11019727    -0.05800
C321        C  0.44454391  0.41148641  0.09145281     0.00200
C322        C  0.41235464  0.39827116  0.07483518    -0.08300
C323        C  0.39562992  0.36370707  0.05694623     0.62100
H324        H  0.37266873  0.40993241  0.06039973     0.12800
H325        H  0.48138720  0.45109501  0.12382597     0.12800
C326        C  0.45514392  0.49302595  0.13350093     0.62300
F327        F  0.36475210  0.35611531  0.04196734    -0.22800
F328        F  0.38878085  0.33774142  0.07956502    -0.20200
F329        F  0.41744730  0.36405476  0.03254180    -0.19800
F330        F  0.42862642  0.49171565  0.15209323    -0.19900
F331        F  0.47069462  0.52307519  0.11490309    -0.20200
F332        F  0.47959750  0.49440264  0.15552182    -0.22900
C333        C  0.28660397  0.53576370  0.13544576    -0.05700
C334        C  0.28137434  0.51062312  0.11153130     0.00200
C335        C  0.24723948  0.48524858  0.10255731    -0.08400
C336        C  0.21949131  0.48649474  0.11749004    -0.05800
C337        C  0.22481967  0.51210990  0.14091756     0.00200
C338        C  0.25901376  0.53686114  0.15059945    -0.08300
C339        C  0.26667954  0.56387554  0.17733396     0.62100
H340        H  0.31283499  0.55470515  0.14246469     0.12800
H341        H  0.19323142  0.46775890  0.11038084     0.12800
C342        C  0.24005559  0.45755077  0.07686977     0.62300
F343        F  0.30098554  0.58063055  0.18720416    -0.22800
F344        F  0.24672011  0.54822612  0.20514131    -0.20200
F345        F  0.25963674  0.58860074  0.16537123    -0.19800
F346        F  0.25006019  0.43516541  0.08931765    -0.19900
F347        F  0.25813077  0.47271013  0.04799183    -0.20200
F348        F  0.20533302  0.43830665  0.06877280    -0.22900
C349        C  0.56680330  0.59991628  0.31725123    -0.05700
C350        C  0.54306739  0.59197700  0.34310305     0.00200
C351        C  0.54048711  0.56906142  0.36862666    -0.08400
C352        C  0.56044055  0.55304887  0.36619821    -0.05800
C353        C  0.58250942  0.55900675  0.33909023     0.00200
C354        C  0.58653572  0.58355386  0.31457110    -0.08300
C355        C  0.61001880  0.59111228  0.28487279     0.62100
H356        H  0.56841766  0.61778035  0.29817564     0.12800
H357        H  0.55792667  0.53454867  0.38498378     0.12800
C358        C  0.51671692  0.56155733  0.39822539     0.62300
F359        F  0.60762592  0.61340182  0.26258209    -0.22800
F360        F  0.60112242  0.56070552  0.26815097    -0.20200
F361        F  0.64389045  0.60635721  0.29562989    -0.19800
F362        F  0.48262822  0.54352970  0.38793946    -0.19900
F363        F  0.52350937  0.59233267  0.41291384    -0.20200
F364        F  0.52123520  0.54190741  0.42212717    -0.22900
C365        C  0.40054582  0.53728841  0.20403764    -0.05700
C366        C  0.41197138  0.56022135  0.17683696     0.00200
C367        C  0.43407609  0.59623827  0.18272814    -0.08400
C368        C  0.44495990  0.60751601  0.21552525    -0.05800
C369        C  0.43359810  0.58450318  0.24248126     0.00200
C370        C  0.41053987  0.54882750  0.23690293    -0.08300
C371        C  0.39659927  0.52292639  0.26530606     0.62100
H372        H  0.38328175  0.50999493  0.19945027     0.12800
H373        H  0.46231692  0.63474423  0.22052739     0.12800
C374        C  0.44584418  0.62299376  0.15506822     0.62300
F375        F  0.37809291  0.48913015  0.25389934    -0.22800
F376        F  0.37477180  0.52902563  0.28462133    -0.20200
F377        F  0.42349907  0.52599058  0.28475853    -0.19800
F378        F  0.41740908  0.62026579  0.13867235    -0.19900
F379        F  0.46632695  0.61791434  0.13283208    -0.20200
F380        F  0.46500529  0.65648539  0.16715138    -0.22900
C381        C  0.38713751  0.54610422  0.46306393    -0.05700
C382        C  0.40458580  0.56533675  0.49154363     0.00200
C383        C  0.43339300  0.59940450  0.48732866    -0.08400
C384        C  0.44375500  0.61227191  0.45482533    -0.05800
C385        C  0.42708405  0.59254450  0.42640619     0.00200
C386        C  0.39790809  0.55877672  0.43056033    -0.08300
C387        C  0.37870391  0.53535169  0.40116519     0.62100
H388        H  0.36519042  0.52036341  0.46644620     0.12800
H389        H  0.46581900  0.63791495  0.45131433     0.12800
C390        C  0.45467364  0.62192806  0.01649467     0.62300
F391        F  0.35191086  0.50341759  0.41116752    -0.22800
F392        F  0.40113330  0.52956747  0.38245842    -0.20200
F393        F  0.36465422  0.55057899  0.38159180    -0.19800
F394        F  0.46868672  0.60647131  0.53437703    -0.19900
F395        F  0.43377039  0.62824714  0.03699873    -0.20200
F396        F  0.48055850  0.65424325  0.50637047    -0.22900
C397        C  0.59540326  0.02408464  0.24428973    -0.05700
C398        C  0.57732497  0.04027303  0.25517654     0.00200
C399        C  0.54304055  0.01953978  0.26696316    -0.08400
C400        C  0.52707447  0.98346381  0.26421510    -0.05800
C401        C  0.54388723  0.96707928  0.25045115     0.00200
C402        C  0.57933572  0.98764098  0.24188587    -0.08300
C403        C  0.59996187  0.97155610  0.22964556     0.62100
H404        H  0.62187955  0.04032791  0.23623844     0.12800
H405        H  0.50049092  0.96768596  0.27213135     0.12800
C406        C  0.52289916  0.03507005  0.28221513     0.62300
F407        F  0.63390567  0.99630525  0.22296727    -0.22800
F408        F  0.58536857  0.95314337  0.20067802    -0.20200
F409        F  0.60022649  0.94965181  0.25376238    -0.19800
F410        F  0.51270434  0.04959051  0.25756319    -0.19900
F411        F  0.54319975  0.06005778  0.30543268    -0.20200
F412        F  0.49343050  0.01038436  0.29832425    -0.22900
C413        C  0.51439100  0.77999588  0.28496160    -0.05700
C414        C  0.48617258  0.77413504  0.26493522     0.00200
C415        C  0.45845206  0.73967881  0.26051450    -0.08400
C416        C  0.45832259  0.71314974  0.27924059    -0.05800
C417        C  0.48577017  0.71912845  0.30041882     0.00200
C418        C  0.51511862  0.75292268  0.30223317    -0.08300
C419        C  0.54689434  0.76068014  0.32236346     0.62100
H420        H  0.53575885  0.80625448  0.28753805     0.12800
H421        H  0.43665596  0.68699983  0.27685994     0.12800
C422        C  0.42959430  0.73023021  0.23538188     0.62300
F423        F  0.57099974  0.79573595  0.32303812    -0.22800
F424        F  0.56245331  0.74382648  0.30832285    -0.20200
F425        F  0.53768787  0.74971001  0.35483127    -0.19800
F426        F  0.44336929  0.74647848  0.20538490    -0.19900
F427        F  0.40690889  0.74006693  0.24709701    -0.20200
F428        F  0.41096339  0.69491727  0.22932572    -0.22900
C429        C  0.40388179  0.98186111  0.00304973    -0.05700
C430        C  0.41535396  0.96465155  0.48275462     0.00200
C431        C  0.44210320  0.98383114  0.45945938    -0.08400
C432        C  0.45813211  0.02008438  0.45947373    -0.05800
C433        C  0.44830422  0.03776948  0.48154295     0.00200
C434        C  0.42006846  0.01835536  0.00302179    -0.08300
C435        C  0.40831388  0.03631220  0.02719438     0.62100
H436        H  0.38308179  0.96672955  0.02025465     0.12800
H437        H  0.47958565  0.03515660  0.44289308     0.12800
C438        C  0.45379610  0.96637087  0.43441483     0.62300
F439        F  0.38164537  0.01292778  0.04722190    -0.22800
F440        F  0.39672442  0.05508079  0.00968831    -0.20200
F441        F  0.43495702  0.05863205  0.54759447    -0.19800
F442        F  0.42545156  0.94014344  0.91764203    -0.19900
F443        F  0.47131338  0.95250484  0.45045385    -0.20200
F444        F  0.47578894  0.98944848  0.41080055    -0.22900
C445        C  0.40442792  0.86859704  0.37156318    -0.05700
C446        C  0.41484980  0.85515515  0.39786109     0.00200
C447        C  0.43647070  0.84125611  0.39117976    -0.08400
C448        C  0.44715903  0.84191829  0.35828900    -0.05800
C449        C  0.43681038  0.85552200  0.33223781     0.00200
C450        C  0.41501997  0.86908685  0.33872942    -0.08300
C451        C  0.40367121  0.88491825  0.31160075     0.62100
H452        H  0.38793566  0.87908336  0.37691983     0.12800
H453        H  0.46387098  0.83178641  0.35255627     0.12800
C454        C  0.44820690  0.82548459  0.41801310     0.62300
F455        F  0.38536474  0.89960298  0.32430424    -0.22800
F456        F  0.38252118  0.85959024  0.28908268    -0.20200
F457        F  0.43225899  0.91064573  0.29529664    -0.19800
F458        F  0.41982015  0.79935496  0.43418890    -0.19900
F459        F  0.46929993  0.85072951  0.44063592    -0.20200
F460        F  0.46677276  0.81123000  0.40495354    -0.22900
C461        C  0.45017355  0.84267830  0.12061042    -0.05700
C462        C  0.43489637  0.84878216  0.14820343     0.00200
C463        C  0.40575300  0.85280904  0.14320360    -0.08400
C464        C  0.39448097  0.85262071  0.11050150    -0.05800
C465        C  0.41043910  0.84772577  0.08272967     0.00200
C466        C  0.43819330  0.84141376  0.08789912    -0.08300
C467        C  0.45541778  0.83338933  0.05950811     0.62100
H468        H  0.47188215  0.83895628  0.12494159     0.12800
H469        H  0.37292775  0.85663166  0.10638609     0.12800
C470        C  0.38662860  0.85784209  0.17185368     0.62300
F471        F  0.48006365  0.82588122  0.07083247    -0.22800
F472        F  0.47173161  0.86160372  0.03851026    -0.20200
F473        F  0.43093393  0.80483202  0.04193331    -0.19800
F474        F  0.40916968  0.88656557  0.19042995    -0.19900
F475        F  0.37199854  0.82871890  0.19182238    -0.20200
F476        F  0.36022483  0.86286601  0.16085639    -0.22900
C477        C  0.01232604  0.58866721  0.44599648    -0.05700
C478        C  0.02911532  0.59694806  0.41502827     0.00200
C479        C  0.00941682  0.58889196  0.38536466    -0.08400
C480        C  0.97316820  0.57053120  0.38768861    -0.05800
C481        C  0.95656488  0.56048114  0.41855185     0.00200
C482        C  0.97608777  0.57047210  0.44824405    -0.08300
C483        C  0.95851984  0.55963883  0.48187779     0.62100
H484        H  0.02783353  0.59470851  0.46840908     0.12800
H485        H  0.95741814  0.56244374  0.36534081     0.12800
C486        C  0.02654018  0.59808005  0.35148534     0.62300
F487        F  0.98181645  0.57476750  0.50782571    -0.22800
F488        F  0.94253267  0.52405826  0.48504158    -0.20200
F489        F  0.93396484  0.56947216  0.48461678    -0.19800
F490        F  0.04727115  0.58368878  0.34764557    -0.19900
F491        F  0.04652195  0.63366584  0.34874003    -0.20200
F492        F  0.00251931  0.58602166  0.32586116    -0.22900
C493        C  0.25223535  0.71425715  0.44015537    -0.05700
C494        C  0.22114010  0.71469493  0.44132267     0.00200
C495        C  0.22179544  0.74455710  0.45441605    -0.08400
C496        C  0.25327083  0.77212006  0.46665727    -0.05800
C497        C  0.28409829  0.77127067  0.46607263     0.00200
C498        C  0.28376429  0.74196866  0.45186349    -0.08300
C499        C  0.31637773  0.73976944  0.44814087     0.62100
H500        H  0.25171640  0.69165719  0.42993741     0.12800
H501        H  0.25402689  0.79480983  0.47698151     0.12800
C502        C  0.18971902  0.74771777  0.45583807     0.62300
F503        F  0.31030002  0.71035565  0.43103851    -0.22800
F504        F  0.32922181  0.73879825  0.47921236    -0.20200
F505        F  0.34099943  0.76805885  0.43053808    -0.19800
F506        F  0.16538277  0.72221833  0.47622618    -0.19900
F507        F  0.17628416  0.74452466  0.42415094    -0.20200
F508        F  0.19673714  0.77943461  0.46839606    -0.22900
C509        C  0.12061679  0.54591710  0.01130013    -0.05700
C510        C  0.13277341  0.58144054  0.00848798     0.00200
C511        C  0.14519054  0.60276535  0.03716339    -0.08400
C512        C  0.14471224  0.58751543  0.06784137    -0.05800
C513        C  0.13236998  0.55187582  0.07100248     0.00200
C514        C  0.11974197  0.53043726  0.04210032    -0.08300
C515        C  0.10508805  0.49149497  0.04318923     0.62100
H516        H  0.11035020  0.53019411  0.48902356     0.12800
H517        H  0.15410050  0.60366235  0.08982577     0.12800
C518        C  0.15983499  0.64167384  0.03548730     0.62300
F519        F  0.07698854  0.47635755  0.06432341    -0.22800
F520        F  0.13014041  0.48444297  0.05408151    -0.20200
F521        F  0.09399700  0.47624945  0.01217415    -0.19800
F522        F  0.13364061  0.64849815  0.02869853    -0.19900
F523        F  0.18466807  0.65590343  0.01087804    -0.20200
F524        F  0.17521386  0.65793313  0.06517302    -0.22900
C525        C  0.14744399  0.60515342  0.29632241    -0.05700
C526        C  0.14156047  0.58406665  0.32434346     0.00200
C527        C  0.13866753  0.55117748  0.31963865    -0.08400
C528        C  0.14040245  0.54038759  0.28701707    -0.05800
C529        C  0.14530255  0.56110834  0.25889983     0.00200
C530        C  0.14969044  0.59458804  0.26379048    -0.08300
C531        C  0.15689191  0.61952206  0.23515928     0.62100
H532        H  0.15002911  0.63026816  0.30004743     0.12800
H533        H  0.13735642  0.51509909  0.28319969     0.12800
C534        C  0.13339315  0.52705778  0.34852453     0.62300
F535        F  0.16344638  0.65161525  0.24610188    -0.22800
F536        F  0.12860441  0.60635291  0.21407983    -0.20200
F537        F  0.18563992  0.62456459  0.21780300    -0.19800
F538        F  0.10253890  0.51773118  0.36425771    -0.19900
F539        F  0.16046833  0.54337436  0.37090743    -0.20200
F540        F  0.13215925  0.49695929  0.33819042    -0.22900
In541      In  0.13169136  0.62170750  0.91645152     1.36900
C542        C  0.13223580  0.59536926  0.97523465     0.77600
O543        O  0.18906627  0.65517305  0.92262140    -0.60800
O544        O  0.15936141  0.67917532  0.92784278    -0.51700
C545        C  0.13837258  0.59719024  0.85746422     0.70300
O546        O  0.13493341  0.58195271  0.88474582    -0.46600
C547        C  0.06610372  0.60657380  0.91480406     0.75000
O548        O  0.13743640  0.58371007  0.94854322    -0.58400
O549        O  0.08993153  0.63401519  0.90190266    -0.48500
O550        O  0.12619652  0.61971664  0.97128103    -0.54900
C551        C  0.18895062  0.68251377  0.92978947     0.85200
O552        O  0.13864922  0.62538423  0.86061441    -0.56800
O553        O  0.07591995  0.58743087  0.92765917    -0.60100
In554      In  0.37703259  0.85879201  0.98965286     1.36900
C555        C  0.40133423  0.85531164  0.93108892     0.77600
O556        O  0.34305329  0.80180808  0.98510456    -0.60800
O557        O  0.31944808  0.83216777  0.98025597    -0.51700
C558        C  0.39755844  0.85064393  0.54944705     0.70300
O559        O  0.41012905  0.84763349  0.52259596    -0.46600
C560        C  0.40082244  0.92661947  0.98700023     0.75000
O561        O  0.41347014  0.85113786  0.95790022    -0.58400
O562        O  0.36915004  0.90521799  0.99202886    -0.48500
O563        O  0.37695585  0.86126874  0.93482489    -0.54900
C564        C  0.31614477  0.80245122  0.97776628     0.85200
O565        O  0.37359454  0.85740514  0.54555122    -0.56800
O566        O  0.41949751  0.91354871  0.48656014    -0.60100
In567      In  0.47979695  0.86044331  0.74113965     1.36900
C568        C  0.45143733  0.85659108  0.79916326     0.77600
O569        O  0.45735492  0.80353173  0.74531594    -0.60800
O570        O  0.51157840  0.83491685  0.75036161    -0.51700
C571        C  0.45096224  0.85190981  0.68147125     0.70300
O572        O  0.43485099  0.84692224  0.70835301    -0.46600
C573        C  0.52218499  0.92887666  0.74514294     0.75000
O574        O  0.43534446  0.85258881  0.77218803    -0.58400
O575        O  0.53346933  0.90852374  0.73963711    -0.48500
O576        O  0.48169641  0.86197662  0.79611946    -0.54900
C577        C  0.48532301  0.80481851  0.75216523     0.85200
O578        O  0.48228427  0.86035253  0.68512813    -0.56800
O579        O  0.48976490  0.91388704  0.74658713    -0.60100
In580      In  0.47420653  0.62694475  0.83436494     1.36900
C581        C  0.44796368  0.59886265  0.77564565     0.77600
O582        O  0.45374823  0.66200782  0.82335002    -0.60800
O583        O  0.50805213  0.68426206  0.82461378    -0.51700
C584        C  0.44305416  0.60707518  0.89331126     0.70300
O585        O  0.42806742  0.59471861  0.86599020    -0.46600
C586        C  0.51908621  0.60514056  0.84082185     0.75000
O587        O  0.43079829  0.58848967  0.80218100    -0.58400
O588        O  0.52873704  0.63696362  0.83979291    -0.48500
O589        O  0.47856257  0.62330885  0.77942862    -0.54900
C590        C  0.48285291  0.68822629  0.81753002     0.85200
O591        O  0.47362612  0.63209882  0.89020876    -0.56800
O592        O  0.48698441  0.58508574  0.83858599    -0.60100
In593      In  0.37315656  0.51737321  0.58422121     1.36900
C594        C  0.39893995  0.54485643  0.64334404     0.77600
O595        O  0.34091936  0.54056554  0.59576975    -0.60800
O596        O  0.31507248  0.48607609  0.58945493    -0.51700
C597        C  0.39247198  0.54816006  0.52471616     0.70300
O598        O  0.40605383  0.56270507  0.55187579    -0.46600
C599        C  0.39617040  0.47309159  0.58586264     0.75000
O600        O  0.41011442  0.56129871  0.61646113    -0.58400
O601        O  0.36414824  0.46243454  0.58483767    -0.48500
O602        O  0.37507188  0.51389277  0.63951102    -0.54900
C603        C  0.31293295  0.51219307  0.59772781     0.85200
O604        O  0.36793028  0.51730273  0.52811408    -0.56800
O605        O  0.41514100  0.50533388  0.58315308    -0.60100
In606      In  0.13778731  0.51657354  0.66514984     1.36900
C607        C  0.13388737  0.53905098  0.60472386     0.77600
O608        O  0.19475930  0.54124388  0.65779349    -0.60800
O609        O  0.16488868  0.48647749  0.65615611    -0.51700
C610        C  0.14465767  0.54584836  0.72516629     0.70300
O611        O  0.14428145  0.55992597  0.69812618    -0.46600
C612        C  0.07199742  0.46917347  0.67023105     0.75000
O613        O  0.14573225  0.55879389  0.62981354    -0.58400
O614        O  0.09515580  0.46101570  0.67168310    -0.48500
O615        O  0.12399148  0.50790672  0.61106749    -0.54900
C616        C  0.19424662  0.51325794  0.65261960     0.85200
O617        O  0.14303283  0.51705121  0.72122770    -0.56800
O618        O  0.08270804  0.50094672  0.66678122    -0.60100
In619      In  0.61903755  0.49023693  0.83267461     1.36900
C620        C  0.59756381  0.46341131  0.89284123     0.77600
O621        O  0.65367261  0.46799657  0.83397187    -0.60800
O622        O  0.67718962  0.52206703  0.84022752    -0.51700
C623        C  0.59376350  0.45948288  0.77346425     0.70300
O624        O  0.58279670  0.44447840  0.80099577    -0.46600
C625        C  0.59680990  0.53542779  0.83549817     0.75000
O626        O  0.58436684  0.44650143  0.86632700    -0.58400
O627        O  0.62710278  0.54451881  0.82600828    -0.48500
O628        O  0.62190014  0.49388116  0.88810721    -0.54900
C629        C  0.68093825  0.49588982  0.84061789     0.85200
O630        O  0.61821994  0.49042944  0.77642719    -0.56800
O631        O  0.57866168  0.50382004  0.84256624    -0.60100
In632      In  0.85315297  0.48808860  0.91597473     1.36900
C633        C  0.85541518  0.46087804  0.85841414     0.77600
O634        O  0.79702131  0.46670888  0.90464584    -0.60800
O635        O  0.82955740  0.52103782  0.90355458    -0.51700
C636        C  0.84490120  0.46025565  0.97669401     0.70300
O637        O  0.84158959  0.44377088  0.95022557    -0.46600
C638        C  0.91959660  0.53496800  0.91883639     0.75000
O639        O  0.84573688  0.44318386  0.88480260    -0.58400
O640        O  0.89668376  0.54297915  0.92351145    -0.48500
O641        O  0.86412541  0.49222279  0.86198863    -0.54900
C642        C  0.79989115  0.49553050  0.89784594     0.85200
O643        O  0.85063224  0.49058701  0.97194772    -0.56800
O644        O  0.90847529  0.50336143  0.91349072    -0.60100
In645      In  0.86017368  0.38512947  0.66718604     1.36900
C646        C  0.85906583  0.41138049  0.72620950     0.77600
O647        O  0.80333961  0.35194624  0.67287889    -0.60800
O648        O  0.83265258  0.32772734  0.67995636    -0.51700
C649        C  0.85267855  0.40956849  0.60836045     0.70300
O650        O  0.85807748  0.42560060  0.63550084    -0.46600
C651        C  0.92571954  0.40070950  0.66544526     0.75000
O652        O  0.85474479  0.42307074  0.69916165    -0.58400
O653        O  0.90174453  0.37228483  0.65409022    -0.48500
O654        O  0.86438020  0.38648584  0.72256446    -0.54900
C655        C  0.80316337  0.32482767  0.68136985     0.85200
O656        O  0.85019897  0.38031271  0.61144190    -0.56800
O657        O  0.91600910  0.42062123  0.67649486    -0.60100
In658      In  0.61909032  0.14614247  0.74360847     1.36900
C659        C  0.59388459  0.14438094  0.68366005     0.77600
O660        O  0.65455742  0.20267414  0.73767284    -0.60800
O661        O  0.67657516  0.17079426  0.73425819    -0.51700
C662        C  0.59733258  0.15793836  0.80071296     0.70300
O663        O  0.58457705  0.15849393  0.77292822    -0.46600
C664        C  0.59345362  0.07848117  0.75174776     0.75000
O665        O  0.58455099  0.15388311  0.70915384    -0.58400
O666        O  0.62557524  0.09970466  0.75430293    -0.48500
O667        O  0.61655025  0.13620758  0.68901589    -0.54900
C668        C  0.68113193  0.20094364  0.73143374     0.85200
O669        O  0.62272839  0.15312580  0.79904901    -0.56800
O670        O  0.57584634  0.09227804  0.74487229    -0.60100
In671      In  0.51647761  0.14307856  0.49191695     1.36900
C672        C  0.54301013  0.14074002  0.55029364     0.77600
O673        O  0.53887899  0.19892598  0.50467723    -0.60800
O674        O  0.48451987  0.16807332  0.50173888    -0.51700
C675        C  0.54474809  0.15714727  0.93181524     0.70300
O676        O  0.55934622  0.15397334  0.95729712    -0.46600
C677        C  0.47162656  0.07560352  0.98406305     0.75000
O678        O  0.56121495  0.15310398  0.52456165    -0.58400
O679        O  0.46180419  0.09744413  0.48855811    -0.48500
O680        O  0.51116600  0.12862025  0.54545381    -0.54900
C681        C  0.51028676  0.19734009  0.50872442     0.85200
O682        O  0.51554533  0.15387889  0.93734875    -0.56800
O683        O  0.50393315  0.08884166  0.98293844    -0.60100
In684      In  0.51417534  0.37714647  0.58125315     1.36900
C685        C  0.53948019  0.40463177  0.52200421     0.77600
O686        O  0.53817248  0.34442257  0.57521910    -0.60800
O687        O  0.48420207  0.31976576  0.56830810    -0.51700
C688        C  0.54237859  0.40008259  0.64137457     0.70300
O689        O  0.55766620  0.41348242  0.61445172    -0.46600
C690        C  0.46804041  0.39730200  0.58750937     0.75000
O691        O  0.55832951  0.41159746  0.54758472    -0.58400
O692        O  0.45882550  0.36548081  0.58664538    -0.48500
O693        O  0.50784552  0.38473775  0.52746687    -0.54900
C694        C  0.51114335  0.31762363  0.56572561     0.85200
O695        O  0.51347634  0.37266480  0.63743646    -0.56800
O696        O  0.50012742  0.41765831  0.58503395    -0.60100
C697        C  0.48066272  0.25472625  0.55135408    -0.05700
C698        C  0.51139052  0.28704551  0.55106223     0.00200
C699        C  0.54085903  0.28992078  0.53477560    -0.08400
C700        C  0.53864728  0.26009877  0.52065372    -0.05800
C701        C  0.50827299  0.22756932  0.52171273     0.00200
C702        C  0.47853359  0.22481615  0.53710987    -0.08300
C703        C  0.44482139  0.19052093  0.53921348     0.62100
H704        H  0.45828069  0.25301109  0.56319980     0.12800
H705        H  0.56110082  0.26200435  0.50874487     0.12800
C706        C  0.57460556  0.32424220  0.53150593     0.62300
F707        F  0.41966118  0.19354145  0.55610290    -0.22800
F708        F  0.45007675  0.16654330  0.55592734    -0.20200
F709        F  0.43247989  0.17855159  0.50749068    -0.19800
F710        F  0.58947195  0.33554735  0.56257551    -0.19900
F711        F  0.56849326  0.34870552  0.51707990    -0.20200
F712        F  0.59830233  0.32147267  0.51173674    -0.22900
C713        C  0.60174230  0.14832266  0.62288042    -0.05700
C714        C  0.58001152  0.14315724  0.64997074     0.00200
C715        C  0.54583215  0.13584705  0.64414665    -0.08400
C716        C  0.53522418  0.13548065  0.61117083    -0.05800
C717        C  0.55711835  0.14128602  0.58393407     0.00200
C718        C  0.59096402  0.14736732  0.58981247    -0.08300
C719        C  0.61561192  0.15223965  0.56173168     0.62100
H720        H  0.62762293  0.15346761  0.62791005     0.12800
H721        H  0.50943880  0.13077086  0.60648768     0.12800
C722        C  0.52005568  0.12702545  0.67222936     0.62300
F723        F  0.64582528  0.15465276  0.57336995    -0.22800
F724        F  0.62451242  0.18240128  0.54464139    -0.20200
F725        F  0.60009647  0.12427058  0.54022545    -0.19800
F726        F  0.52973275  0.15589689  0.69185915    -0.19900
F727        F  0.51865190  0.10072261  0.69147688    -0.20200
F728        F  0.48706166  0.11582568  0.66034592    -0.22900
C729        C  0.53662996  0.15000582  0.87076386    -0.05700
C730        C  0.55959481  0.16215970  0.89789544     0.00200
C731        C  0.59550257  0.17701800  0.89202927    -0.08400
C732        C  0.60664222  0.17586007  0.85966344    -0.05800
C733        C  0.58347703  0.16175349  0.83289034     0.00200
C734        C  0.54787436  0.14978400  0.83814262    -0.08300
C735        C  0.52152548  0.13579612  0.80996404     0.62100
H736        H  0.50938293  0.13952118  0.87550835     0.12800
H737        H  0.63381521  0.18562644  0.85510499     0.12800
C738        C  0.62222172  0.19448066  0.91944423     0.62300
F739        F  0.48827631  0.12398569  0.82118916    -0.22800
F740        F  0.52187714  0.10843469  0.79448537    -0.20200
F741        F  0.52921130  0.16170243  0.78702065    -0.19800
F742        F  0.62148179  0.16982050  0.94066181    -0.19900
F743        F  0.61549445  0.21691898  0.93714060    -0.20200
F744        F  0.65529195  0.21360104  0.90673043    -0.22900
C745        C  0.77453421  0.26468601  0.70441004    -0.05700
C746        C  0.77142662  0.29292720  0.69342805     0.00200
C747        C  0.73865524  0.29056828  0.69587875    -0.08400
C748        C  0.71064217  0.26016086  0.70871175    -0.05800
C749        C  0.71359829  0.23194681  0.71954900     0.00200
C750        C  0.74622317  0.23418855  0.71748877    -0.08300
C751        C  0.75148911  0.20500009  0.72943366     0.62100
H752        H  0.79952367  0.26670903  0.70283213     0.12800
H753        H  0.68568067  0.25817573  0.71018253     0.12800
C754        C  0.73257646  0.31978747  0.68550634     0.62300
F755        F  0.78577211  0.21378633  0.72788899    -0.22800
F756        F  0.73258807  0.17600201  0.70974551    -0.20200
F757        F  0.74096749  0.19713476  0.76218681    -0.19800
F758        F  0.74103233  0.32780003  0.65234714    -0.19900
F759        F  0.75234462  0.34863286  0.70515411    -0.20200
F760        F  0.69843774  0.31103027  0.68910241    -0.22900
C761        C  0.86499326  0.41010014  0.78744492    -0.05700
C762        C  0.85801417  0.42498061  0.75974149     0.00200
C763        C  0.84996621  0.45150769  0.76511418    -0.08400
C764        C  0.84909078  0.46173501  0.79792052    -0.05800
C765        C  0.85585906  0.44674850  0.82535808     0.00200
C766        C  0.86411443  0.42051859  0.82027308    -0.08300
C767        C  0.87273324  0.40415475  0.84908871     0.62100
H768        H  0.87115464  0.38995458  0.78327219     0.12800
H769        H  0.84286032  0.48184312  0.80254358     0.12800
C770        C  0.84242291  0.46935668  0.73688455     0.62300
F771        F  0.88387126  0.38210729  0.83821084    -0.22800
F772        F  0.84372102  0.38511310  0.86844842    -0.20200
F773        F  0.89879202  0.42964941  0.86837275    -0.19800
F774        F  0.81432034  0.44526089  0.71859918    -0.19900
F775        F  0.87104146  0.48622870  0.71657000    -0.20200
F776        F  0.83469978  0.49380466  0.74841758    -0.22900
C777        C  0.86389831  0.47008033  0.53568617    -0.05700
C778        C  0.84418787  0.44625769  0.51064402     0.00200
C779        C  0.82593222  0.41039147  0.51839023    -0.08400
C780        C  0.82908497  0.39979377  0.55068168    -0.05800
C781        C  0.84948962  0.42358031  0.57553768     0.00200
C782        C  0.86700891  0.45955899  0.56797882    -0.08300
C783        C  0.88993526  0.48695897  0.59324303     0.62100
H784        H  0.87772815  0.49733138  0.52943392     0.12800
H785        H  0.81564578  0.37249472  0.55674611     0.12800
C786        C  0.80133640  0.38360303  0.99350411     0.62300
F787        F  0.90627914  0.51992862  0.57975939    -0.22800
F788        F  0.91520113  0.48040096  0.60456963    -0.20200
F789        F  0.87026398  0.48678854  0.61971611    -0.19800
F790        F  0.82046651  0.38031467  0.96838894    -0.19900
F791        F  0.77913661  0.39336558  0.98003018    -0.20200
F792        F  0.78143981  0.35140201  0.00798973    -0.22900
C793        C  0.73751435  0.52582187  0.87022589    -0.05700
C794        C  0.71354700  0.49719770  0.85120621     0.00200
C795        C  0.71967789  0.46931143  0.84602748    -0.08400
C796        C  0.74827745  0.47039532  0.86169815    -0.05800
C797        C  0.77119861  0.49813769  0.88201957     0.00200
C798        C  0.76621386  0.52678768  0.88590082    -0.08300
C799        C  0.78997619  0.55745952  0.90770249     0.62100
H800        H  0.73282939  0.54705802  0.87389706     0.12800
H801        H  0.75277151  0.44897317  0.85842232     0.12800
C802        C  0.69620788  0.43801328  0.82462232     0.62300
F803        F  0.77822538  0.58052763  0.91110915    -0.22800
F804        F  0.82255889  0.57510616  0.89381683    -0.20200
F805        F  0.79200754  0.54599557  0.93913960    -0.19800
F806        F  0.68969900  0.44857923  0.79447832    -0.19900
F807        F  0.66547475  0.41732217  0.84107620    -0.20200
F808        F  0.71099590  0.41803186  0.81780224    -0.22900
C809        C  0.58674249  0.44845302  0.98693697    -0.05700
C810        C  0.55366328  0.41895707  0.98841573     0.00200
C811        C  0.53577881  0.40347543  0.95828797    -0.08400
C812        C  0.55153434  0.41883804  0.92793130    -0.05800
C813        C  0.58431428  0.44878698  0.92641813     0.00200
C814        C  0.60264711  0.46369785  0.95654036    -0.08300
C815        C  0.63906245  0.49491681  0.95713802     0.62100
H816        H  0.60018559  0.45940067  0.51014655     0.12800
H817        H  0.53785949  0.40766640  0.90486439     0.12800
C818        C  0.50043040  0.37072703  0.95767569     0.62300
F819        F  0.65265232  0.50279192  0.98905767    -0.22800
F820        F  0.63897624  0.52373178  0.94491917    -0.20200
F821        F  0.66059678  0.48816141  0.93806787    -0.19800
F822        F  0.47617592  0.37739377  0.97141622    -0.19900
F823        F  0.50148292  0.34479247  0.97541813    -0.20200
F824        F  0.48968183  0.35856111  0.92562735    -0.22900
C825        C  0.54402989  0.39429464  0.70295435    -0.05700
C826        C  0.55642159  0.41575878  0.67482486     0.00200
C827        C  0.57990745  0.45174749  0.67957407    -0.08400
C828        C  0.59115209  0.46436687  0.71208110    -0.05800
C829        C  0.57942115  0.44287584  0.74025234     0.00200
C830        C  0.55475482  0.40706657  0.73563198    -0.08300
C831        C  0.53959597  0.38205362  0.76464771     0.62100
H832        H  0.52565462  0.36709862  0.69906665     0.12800
H833        H  0.60938306  0.49162706  0.71571282     0.12800
C834        C  0.59265145  0.47729836  0.65081403     0.62300
F835        F  0.51602065  0.34876559  0.75424470    -0.22800
F836        F  0.52247676  0.39265672  0.78581811    -0.20200
F837        F  0.56569019  0.38074998  0.78176449    -0.19800
F838        F  0.56484889  0.47429226  0.63294985    -0.19900
F839        F  0.61337870  0.47086263  0.63020050    -0.20200
F840        F  0.61193518  0.51125556  0.66165919    -0.22900
C841        C  0.01797600  0.42900873  0.64145426    -0.05700
C842        C  0.03486335  0.44418730  0.67147903     0.00200
C843        C  0.01556297  0.44124738  0.70017378    -0.08400
C844        C  0.97942995  0.42391968  0.69761445    -0.05800
C845        C  0.96245734  0.41072895  0.66707111     0.00200
C846        C  0.98179991  0.41278354  0.63852294    -0.08300
C847        C  0.96471987  0.40064827  0.60471101     0.62100
H848        H  0.03357075  0.43237482  0.61973633     0.12800
H849        H  0.96419618  0.42243909  0.71907630     0.12800
C850        C  0.03335541  0.45803559  0.73279701     0.62300
F851        F  0.98860243  0.40712180  0.57992669    -0.22800
F852        F  0.94728005  0.41776386  0.59651565    -0.20200
F853        F  0.94164604  0.36542246  0.60551250    -0.19800
F854        F  0.05143262  0.49365837  0.72938730    -0.19900
F855        F  0.05612872  0.44707546  0.74146328    -0.20200
F856        F  0.00995890  0.44959896  0.75847528    -0.22900
C857        C  0.39629477  0.41830042  0.57436135    -0.05700
C858        C  0.41110084  0.45046103  0.59068458     0.00200
C859        C  0.44084562  0.46122056  0.61087381    -0.08400
C860        C  0.45733018  0.44173775  0.61030102    -0.05800
C861        C  0.44450797  0.41127425  0.59151646     0.00200
C862        C  0.41237966  0.39808901  0.57478564    -0.08300
C863        C  0.39570870  0.36355298  0.55684554     0.62100
H864        H  0.37273582  0.40977135  0.56023868     0.12800
H865        H  0.48124935  0.45083175  0.62399805     0.12800
C866        C  0.45497595  0.49274598  0.63358029     0.62300
F867        F  0.36493154  0.35603774  0.54169070    -0.22800
F868        F  0.38869038  0.33754195  0.57946515    -0.20200
F869        F  0.41763770  0.36389152  0.53257028    -0.19800
F870        F  0.42840008  0.49144271  0.65206359    -0.19900
F871        F  0.47061690  0.52281153  0.61500879    -0.20200
F872        F  0.47933153  0.49407338  0.65570181    -0.22900
C873        C  0.28671082  0.53564751  0.63551105    -0.05700
C874        C  0.28149882  0.51055078  0.61154963     0.00200
C875        C  0.24737605  0.48522752  0.60248573    -0.08400
C876        C  0.21961855  0.48649587  0.61735391    -0.05800
C877        C  0.22493461  0.51207222  0.64081390     0.00200
C878        C  0.25910279  0.53674358  0.65061867    -0.08300
C879        C  0.26670634  0.56366913  0.67742865     0.62100
H880        H  0.31293128  0.55455166  0.64260176     0.12800
H881        H  0.19336493  0.46780182  0.61018377     0.12800
C882        C  0.24021243  0.45752229  0.57681526     0.62300
F883        F  0.30092390  0.58017919  0.68756455    -0.22800
F884        F  0.24647607  0.54798495  0.70507928    -0.20200
F885        F  0.25995588  0.58858184  0.66542489    -0.19800
F886        F  0.24996003  0.43499215  0.58941451    -0.19900
F887        F  0.25851547  0.47263415  0.54802977    -0.20200
F888        F  0.20553502  0.43845646  0.56850298    -0.22900
C889        C  0.56707047  0.60001537  0.81731597    -0.05700
C890        C  0.54311453  0.59183446  0.84300713     0.00200
C891        C  0.54029429  0.56865282  0.86835311    -0.08400
C892        C  0.56020125  0.55259999  0.86586978    -0.05800
C893        C  0.58251334  0.55882435  0.83891342     0.00200
C894        C  0.58681011  0.58366063  0.81461177    -0.08300
C895        C  0.61062830  0.59158098  0.78512801     0.62100
H896        H  0.56888053  0.61809331  0.79838608     0.12800
H897        H  0.55750335  0.53390573  0.88451543     0.12800
C898        C  0.51638029  0.56096990  0.89786687     0.62300
F899        F  0.60849298  0.61414830  0.76300897    -0.22800
F900        F  0.60192053  0.56138216  0.76810113    -0.20200
F901        F  0.64437794  0.60669188  0.79622548    -0.19800
F902        F  0.48233674  0.54303499  0.88743620    -0.19900
F903        F  0.52313901  0.59165985  0.91272763    -0.20200
F904        F  0.52076169  0.54114927  0.92167510    -0.22900
C905        C  0.40057859  0.53708518  0.70410980    -0.05700
C906        C  0.41205721  0.55996552  0.67686553     0.00200
C907        C  0.43434707  0.59596645  0.68268435    -0.08400
C908        C  0.44527898  0.60728858  0.71545922    -0.05800
C909        C  0.43382885  0.58434106  0.74246507     0.00200
C910        C  0.41066860  0.54867130  0.73695367    -0.08300
C911        C  0.39670812  0.52282807  0.76540711     0.62100
H912        H  0.38319880  0.50980358  0.69957484     0.12800
H913        H  0.46273183  0.63450881  0.72040497     0.12800
C914        C  0.44627462  0.62266640  0.65496085     0.62300
F915        F  0.37817648  0.48901153  0.75406161    -0.22800
F916        F  0.37490192  0.52899605  0.78468115    -0.20200
F917        F  0.42359422  0.52589634  0.78488769    -0.19800
F918        F  0.41792373  0.62020303  0.63862703    -0.19900
F919        F  0.46651792  0.61726259  0.63269545    -0.20200
F920        F  0.46574939  0.65616366  0.66694672    -0.22900
C921        C  0.38686727  0.54637651  0.96307601    -0.05700
C922        C  0.40458617  0.56545019  0.99153022     0.00200
C923        C  0.43369878  0.59931890  0.98729235    -0.08400
C924        C  0.44404774  0.61216813  0.95478581    -0.05800
C925        C  0.42710611  0.59258428  0.92637357     0.00200
C926        C  0.39764498  0.55900170  0.93055960    -0.08300
C927        C  0.37811806  0.53570355  0.90119564     0.62100
H928        H  0.36468906  0.52078788  0.96648939     0.12800
H929        H  0.46632309  0.63767075  0.95126783     0.12800
C930        C  0.45400534  0.62223989  0.51655536     0.62300
F931        F  0.35100374  0.50398047  0.91124259    -0.22800
F932        F  0.40017721  0.52942328  0.88243570    -0.20200
F933        F  0.36444901  0.55132762  0.88166507    -0.19800
F934        F  0.46882330  0.60560714  0.03425560    -0.19900
F935        F  0.43264822  0.62796427  0.53699381    -0.20200
F936        F  0.48165216  0.65366862  0.00628360    -0.22900
C937        C  0.59532860  0.02416771  0.74462558    -0.05700
C938        C  0.57713374  0.04034253  0.75518704     0.00200
C939        C  0.54270756  0.01958465  0.76660319    -0.08400
C940        C  0.52675307  0.98351455  0.76377421    -0.05800
C941        C  0.54373041  0.96714013  0.75034946     0.00200
C942        C  0.57928729  0.98772967  0.74217777    -0.08300
C943        C  0.60008061  0.97169466  0.73030340     0.62100
H944        H  0.62190247  0.04042414  0.73686141     0.12800
H945        H  0.50006895  0.96774691  0.77138479     0.12800
C946        C  0.52241343  0.03507662  0.78157864     0.62300
F947        F  0.63416037  0.99645791  0.72420591    -0.22800
F948        F  0.58599003  0.95356582  0.70109411    -0.20200
F949        F  0.59986941  0.94954954  0.75441935    -0.19800
F950        F  0.51236490  0.04955114  0.75674942    -0.19900
F951        F  0.54252298  0.06009007  0.80485140    -0.20200
F952        F  0.49285580  0.01037355  0.79755851    -0.22900
C953        C  0.51457861  0.78004998  0.78507187    -0.05700
C954        C  0.48652753  0.77418072  0.76477363     0.00200
C955        C  0.45895600  0.73969110  0.76008119    -0.08400
C956        C  0.45876174  0.71312730  0.77880940    -0.05800
C957        C  0.48601309  0.71911434  0.80027116     0.00200
C958        C  0.51525444  0.75295475  0.80235901    -0.08300
C959        C  0.54685655  0.76073668  0.82279986     0.62100
H960        H  0.53584910  0.80633163  0.78785376     0.12800
H961        H  0.43720029  0.68694555  0.77621918     0.12800
C962        C  0.43035008  0.73024761  0.73464985     0.62300
F963        F  0.57084761  0.79581891  0.82370474    -0.22800
F964        F  0.56267550  0.74406572  0.80891841    -0.20200
F965        F  0.53734034  0.74958108  0.85517642    -0.19800
F966        F  0.44443749  0.74655344  0.70475111    -0.19900
F967        F  0.40750847  0.74002388  0.74603506    -0.20200
F968        F  0.41180744  0.69494294  0.72853292    -0.22900
C969        C  0.40362376  0.98208697  0.50307646    -0.05700
C970        C  0.41552790  0.96444408  0.98259456     0.00200
C971        C  0.44216763  0.98365651  0.95920108    -0.08400
C972        C  0.45813131  0.01991586  0.95920124    -0.05800
C973        C  0.44835390  0.03757005  0.98136883     0.00200
C974        C  0.41985453  0.01858742  0.50303557    -0.08300
C975        C  0.40792635  0.03656654  0.52699236     0.62100
H976        H  0.38272110  0.96696587  0.52018657     0.12800
H977        H  0.47949932  0.03501735  0.94254068     0.12800
C978        C  0.45383323  0.96622501  0.93409554     0.62300
F979        F  0.38107457  0.01319634  0.54685886    -0.22800
F980        F  0.39650984  0.05535588  0.50926404    -0.20200
F981        F  0.43551149  0.05839583  0.04762583    -0.19800
F982        F  0.42544307  0.94039695  0.41783630    -0.19900
F983        F  0.47152413  0.95250441  0.95006305    -0.20200
F984        F  0.47565878  0.98928757  0.91038295    -0.22900
C985        C  0.40451081  0.86836704  0.87146053    -0.05700
C986        C  0.41440584  0.85431717  0.89764078     0.00200
C987        C  0.43554709  0.83989240  0.89085076    -0.08400
C988        C  0.44640681  0.84076098  0.85799104    -0.05800
C989        C  0.43663738  0.85503195  0.83207947     0.00200
C990        C  0.41527974  0.86907459  0.83866376    -0.08300
C991        C  0.40467242  0.88572471  0.81169791     0.62100
H992        H  0.38835711  0.87922518  0.87689378     0.12800
H993        H  0.46279192  0.83026819  0.85216956     0.12800
C994        C  0.44652387  0.82328209  0.91751560     0.62300
F995        F  0.38673991  0.90075814  0.82452319    -0.22800
F996        F  0.38346400  0.86093845  0.78878274    -0.20200
F997        F  0.43366987  0.91136513  0.79582404    -0.19800
F998        F  0.41770911  0.79728450  0.93328898    -0.19900
F999        F  0.46773057  0.84797658  0.94050996    -0.20200
F1000       F  0.46466199  0.80862200  0.90432230    -0.22900
C1001       C  0.44971933  0.84212623  0.62074057    -0.05700
C1002       C  0.43476240  0.84865829  0.64832427     0.00200
C1003       C  0.40582603  0.85303401  0.64337393    -0.08400
C1004       C  0.39455016  0.85291358  0.61069063    -0.05800
C1005       C  0.41024485  0.84765482  0.58291406     0.00200
C1006       C  0.43765436  0.84082171  0.58806443    -0.08300
C1007       C  0.45439672  0.83216256  0.55969541     0.62100
H1008       H  0.47123680  0.83809312  0.62505107     0.12800
H1009       H  0.37322191  0.85728229  0.60659354     0.12800
C1010       C  0.38694700  0.85838188  0.67205354     0.62300
F1011       F  0.47849841  0.82390292  0.57105031    -0.22800
F1012       F  0.47122474  0.86026748  0.53864547    -0.20200
F1013       F  0.42947145  0.80384676  0.54217072    -0.19800
F1014       F  0.40971076  0.88712999  0.69047807    -0.19900
F1015       F  0.37223260  0.82936183  0.69215931    -0.20200
F1016       F  0.36063227  0.86356767  0.66110104    -0.22900
C1017       C  0.01253330  0.58789012  0.94619603    -0.05700
C1018       C  0.02928493  0.59637596  0.91521065     0.00200
C1019       C  0.00958579  0.58868189  0.88558822    -0.08400
C1020       C  0.97334404  0.57040188  0.88793234    -0.05800
C1021       C  0.95676240  0.56012913  0.91878738     0.00200
C1022       C  0.97630208  0.56983575  0.94847033    -0.08300
C1023       C  0.95874120  0.55898285  0.98210413     0.62100
H1024       H  0.02805327  0.59371980  0.96857788     0.12800
H1025       H  0.95758087  0.56255064  0.86559382     0.12800
C1026       C  0.02670557  0.59815852  0.85171746     0.62300
F1027       F  0.98208104  0.57389040  0.00805557    -0.22800
F1028       F  0.94251826  0.52337776  0.98515391    -0.20200
F1029       F  0.93438270  0.56906661  0.98494975    -0.19800
F1030       F  0.04721219  0.58356150  0.84751935    -0.19900
F1031       F  0.04691559  0.63375646  0.84933686    -0.20200
F1032       F  0.00268235  0.58656488  0.82610610    -0.22900
C1033       C  0.25220430  0.71442126  0.93952940    -0.05700
C1034       C  0.22107034  0.71477089  0.94076136     0.00200
C1035       C  0.22168209  0.74464869  0.95376414    -0.08400
C1036       C  0.25313499  0.77223458  0.96602490    -0.05800
C1037       C  0.28394536  0.77135543  0.96556944     0.00200
C1038       C  0.28368659  0.74213305  0.95127764    -0.08300
C1039       C  0.31633659  0.74001425  0.94752896     0.62100
H1040       H  0.25174525  0.69185118  0.92931084     0.12800
H1041       H  0.25387235  0.79491687  0.97634771     0.12800
C1042       C  0.18959341  0.74779165  0.95512077     0.62300
F1043       F  0.31039804  0.71084797  0.93004553    -0.22800
F1044       F  0.32896044  0.73862607  0.97858780    -0.20200
F1045       F  0.34106602  0.76855288  0.93029447    -0.19800
F1046       F  0.16539024  0.72252796  0.97578437    -0.19900
F1047       F  0.17596861  0.74420588  0.92346861    -0.20200
F1048       F  0.19666117  0.77965539  0.96731477    -0.22900
C1049       C  0.12008085  0.54593890  0.51126479    -0.05700
C1050       C  0.13260242  0.58153134  0.50841600     0.00200
C1051       C  0.14551176  0.60291435  0.53701470    -0.08400
C1052       C  0.14505135  0.58764574  0.56767271    -0.05800
C1053       C  0.13230345  0.55193749  0.57088262     0.00200
C1054       C  0.11925130  0.53044742  0.54204855    -0.08300
C1055       C  0.10413948  0.49143604  0.54320939     0.62100
H1056       H  0.11122556  0.53021156  0.98900540     0.12800
H1057       H  0.15478150  0.60383621  0.58960323     0.12800
C1058       C  0.16068878  0.64189920  0.53526910     0.62300
F1059       F  0.07613010  0.47667227  0.56446831    -0.22800
F1060       F  0.12893535  0.48396887  0.55399853    -0.20200
F1061       F  0.09276576  0.47616358  0.51224455    -0.19800
F1062       F  0.13477783  0.64922713  0.52882416    -0.19900
F1063       F  0.18525782  0.65572625  0.51039659    -0.20200
F1064       F  0.17657016  0.65813071  0.56480954    -0.22900
C1065       C  0.14797758  0.60491479  0.79638744    -0.05700
C1066       C  0.14162882  0.58360707  0.82431977     0.00200
C1067       C  0.13828743  0.55053458  0.81951861    -0.08400
C1068       C  0.14007498  0.53981677  0.78687516    -0.05800
C1069       C  0.14547079  0.56079296  0.75884537     0.00200
C1070       C  0.15031803  0.59443665  0.76385173    -0.08300
C1071       C  0.15819702  0.61967182  0.73535113     0.62100
H1072       H  0.15091472  0.63016772  0.80019189     0.12800
H1073       H  0.13668607  0.51440004  0.78296579     0.12800
C1074       C  0.13243340  0.52613878  0.84831314     0.62300
F1075       F  0.16524561  0.65188193  0.74644581    -0.22800
F1076       F  0.13012576  0.60710671  0.71404765    -0.20200
F1077       F  0.18689559  0.62428763  0.71819805    -0.19800
F1078       F  0.10170958  0.51739260  0.86401612    -0.19900
F1079       F  0.15951706  0.54190803  0.87075496    -0.20200
F1080       F  0.13050788  0.49574719  0.83786556    -0.22900
loop_ 
_geom_bond_atom_site_label_1 
_geom_bond_atom_site_label_2 
_geom_bond_distance 
_geom_bond_site_symmetry_2 
_ccdc_geom_bond_type 
In1           O3   2.245       .  S
In1           O4   2.266       .  S
In1          O12   2.262       .  S
In1           O6   2.252       .  S
In1           O8   2.251       .  S
In1           O9   2.283       .  S
In1          O10   2.215       .  S
In1          O13   2.225       .  S
C2            O8   1.266       .  A
C2           O10   1.260       .  A
C2         C1050   1.480       .  S
O3           C11   1.261       .  A
O4           C11   1.262       .  A
C5           O12   1.263       .  A
C5            O6   1.259       .  A
C5          C526   1.502       .  S
C7            O9   1.264       .  A
C7           O13   1.256       .  A
C7          C478   1.476       .  S
C11         C494   1.500       .  S
In14         O16   2.221       .  S
In14         O17   2.264       .  S
In14         O21   2.236       .  S
In14         O22   2.281       .  S
In14         O23   2.207       .  S
In14        O565   2.243       .  S
In14        O559   2.224       .  S
In14        O566   2.212       .  S
C15          O21   1.262       .  A
C15          O23   1.260       .  A
C15         C446   1.478       .  S
O16          C24   1.257       .  A
O17          C24   1.267       .  A
C18          O25   1.266       .  A
C18          O19   1.258       .  A
C18         C465   1.491       .  S
O19        In554   2.225   1_554  S
C20          O22   1.267       .  A
C20         O566   1.256       .  A
C20         C430   1.485       .  S
C24         C497   1.493       .  S
O25        In554   2.243   1_554  S
O26        In554   2.213       .  S
O26         C560   1.256       .  A
In27         O29   2.223       .  S
In27         O30   2.264       .  S
In27         O38   2.254       .  S
In27         O32   2.219       .  S
In27         O34   2.230       .  S
In27         O35   2.279       .  S
In27         O36   2.210       .  S
In27         O39   2.212       .  S
C28          O34   1.262       .  A
C28          O36   1.260       .  A
C28         C449   1.469       .  S
O29          C37   1.257       .  A
O30          C37   1.267       .  A
C31          O38   1.266       .  A
C31          O32   1.258       .  A
C31         C462   1.487       .  S
C33          O35   1.267       .  A
C33          O39   1.259       .  A
C33         C401   1.495       .  S
C37         C414   1.489       .  S
In40         O42   2.228       .  S
In40         O43   2.260       .  S
In40         O51   2.258       .  S
In40         O45   2.231       .  S
In40         O47   2.242       .  S
In40         O48   2.264       .  S
In40         O49   2.230       .  S
In40         O52   2.228       .  S
C41          O47   1.261       .  A
C41          O49   1.259       .  A
C41         C369   1.476       .  S
O42          C50   1.261       .  A
O43          C50   1.262       .  A
C44          O51   1.265       .  A
C44          O45   1.258       .  A
C44         C385   1.495       .  S
C46          O48   1.263       .  A
C46          O52   1.258       .  A
C46         C350   1.475       .  S
C50         C417   1.489       .  S
In53         O55   2.218       .  S
In53         O56   2.263       .  S
In53         O64   2.265       .  S
In53         O58   2.229       .  S
In53         O60   2.234       .  S
In53         O61   2.283       .  S
In53         O62   2.230       .  S
In53         O65   2.208       .  S
C54          O60   1.261       .  A
C54          O62   1.261       .  A
C54         C366   1.487       .  S
O55          C63   1.259       .  A
O56          C63   1.266       .  A
C57          O64   1.266       .  A
C57          O58   1.257       .  A
C57         C922   1.498   1_554  S
C59          O61   1.266       .  A
C59          O65   1.257       .  A
C59         C318   1.484       .  S
C63         C334   1.486       .  S
In66         O68   2.236       .  S
In66         O69   2.257       .  S
In66         O77   2.264       .  S
In66         O71   2.245       .  S
In66         O73   2.245       .  S
In66         O74   2.261       .  S
In66         O75   2.237       .  S
In66         O78   2.205       .  S
C67          O73   1.266       .  A
C67          O75   1.258       .  A
C67         C513   1.493       .  S
O68          C76   1.259       .  A
O69          C76   1.264       .  A
C70          O77   1.264       .  A
C70          O71   1.261       .  A
C70         C529   1.502       .  S
C72          O74   1.266       .  A
C72          O78   1.258       .  A
C72         C302   1.466       .  S
C76         C337   1.486       .  S
In79         O81   2.232       .  S
In79         O82   2.274       .  S
In79         O90   2.261       .  S
In79         O84   2.255       .  S
In79         O86   2.241       .  S
In79         O87   2.286       .  S
In79         O88   2.232       .  S
In79         O91   2.222       .  S
C80          O86   1.265       .  A
C80          O88   1.259       .  A
C80         C273   1.488       .  S
O81          C89   1.257       .  A
O82          C89   1.266       .  A
C83          O90   1.265       .  A
C83          O84   1.260       .  A
C83         C289   1.503       .  S
C85          O87   1.267       .  A
C85          O91   1.258       .  A
C85         C353   1.487       .  S
C89         C254   1.496       .  S
In92         O94   2.243       .  S
In92         O95   2.264       .  S
In92        O103   2.260       .  S
In92         O97   2.251       .  S
In92         O99   2.247       .  S
In92        O100   2.257       .  S
In92        O101   2.213       .  S
In92        O104   2.221       .  S
C93          O99   1.263       .  A
C93         O101   1.260       .  A
C93         C225   1.477       .  S
O94         C102   1.261       .  A
O95         C102   1.261       .  A
C96         O103   1.263       .  A
C96          O97   1.259       .  A
C96         C778   1.494       .  S
C98         O100   1.264       .  A
C98         O104   1.258       .  A
C98         C481   1.467       .  S
C102        C257   1.491       .  S
In105       O107   2.223       .  S
In105       O108   2.278       .  S
In105       O116   2.272       .  S
In105       O110   2.256       .  S
In105       O112   2.240       .  S
In105       O113   2.276       .  S
In105       O114   2.231       .  S
In105       O117   2.217       .  S
C106        O112   1.263       .  A
C106        O114   1.261       .  A
C106        C222   1.489       .  S
O107        C115   1.258       .  A
O108        C115   1.265       .  A
C109        O116   1.264       .  A
C109        O110   1.259       .  A
C109        C241   1.497       .  S
C111        O113   1.264       .  A
C111        O117   1.256       .  A
C111        C305   1.475       .  S
C115        C206   1.500       .  S
In118       O120   2.219       .  S
In118       O121   2.266       .  S
In118       O129   2.244       .  S
In118       O123   2.230       .  S
In118       O125   2.229       .  S
In118       O126   2.282       .  S
In118       O127   2.229       .  S
In118       O130   2.203       .  S
C119        O125   1.261       .  A
C119        O127   1.261       .  A
C119        C174   1.478       .  S
O120        C128   1.260       .  A
O121        C128   1.264       .  A
C122        O129   1.265       .  A
C122        O123   1.259       .  A
C122        C193   1.484       .  S
C124        O126   1.267       .  A
C124        O130   1.255       .  A
C124        C398   1.486       .  S
C128        C209   1.495       .  S
In131       O133   2.233   1_556  S
In131       O134   2.258   1_556  S
In131       O138   2.241   1_556  S
In131       O139   2.268       .  S
In131       O140   2.225   1_556  S
In131       O682   2.250       .  S
In131       O676   2.229       .  S
In131       O683   2.224       .  S
C132        O138   1.262       .  A
C132        O140   1.261       .  A
C132        C177   1.486       .  S
O133        C141   1.260       .  A
O134        C141   1.265       .  A
C135        O142   1.264       .  A
C135        O136   1.260       .  A
C135        C190   1.486       .  S
O136       In671   2.230       .  S
C137        O143   1.260       .  A
C137        O679   1.265       .  A
C137        C433   1.484       .  S
O139        C677   1.266       .  A
C141        C161   1.497       .  S
O142       In671   2.250       .  S
O143       In671   2.223       .  S
In144       O146   2.230       .  S
In144       O147   2.277       .  S
In144       O155   2.266       .  S
In144       O149   2.239       .  S
In144       O151   2.250       .  S
In144       O152   2.278       .  S
In144       O153   2.228       .  S
In144       O156   2.208       .  S
C145        O151   1.264       .  A
C145        O153   1.258       .  A
C145        C810   1.487   1_554  S
O146        C154   1.258       .  A
O147        C154   1.266       .  A
C148        O155   1.266       .  A
C148        O149   1.261       .  A
C148        C286   1.498       .  S
C150        O152   1.268       .  A
C150        O156   1.260       .  A
C150        C321   1.485       .  S
C154        C158   1.497       .  S
C157        C158   1.407       .  A
C157        C162   1.415       .  A
C157        H164   1.080       .  S
C158        C159   1.424       .  A
C159        C160   1.408       .  A
C159        C166   1.523       .  S
C160        C161   1.405       .  A
C160        H165   1.081       .  S
C161        C162   1.421       .  A
C162        C163   1.518       .  S
C163        F167   1.384       .  S
C163        F168   1.384       .  S
C163        F169   1.383       .  S
C166        F170   1.383       .  S
C166        F171   1.384       .  S
C166        F172   1.385       .  S
C173        C174   1.403       .  A
C173        C178   1.406       .  A
C173        H180   1.082       .  S
C174        C175   1.416       .  A
C175        C176   1.404       .  A
C175        C182   1.522       .  S
C176        C177   1.407       .  A
C176        H181   1.082       .  S
C177        C178   1.421       .  A
C178        C179   1.520       .  S
C179        F183   1.385       .  S
C179        F184   1.383       .  S
C179        F185   1.384       .  S
C182        F186   1.383       .  S
C182        F187   1.384       .  S
C182        F188   1.385       .  S
C189        C190   1.404       .  A
C189        C194   1.408       .  A
C189        H196   1.083       .  S
C190        C191   1.419       .  A
C191        C192   1.405       .  A
C191        C198   1.518       .  S
C192        C193   1.402       .  A
C192        H197   1.084       .  S
C193        C194   1.422       .  A
C194        C195   1.522       .  S
C195        F199   1.385       .  S
C195        F200   1.381       .  S
C195        F201   1.383       .  S
C198        F202   1.382       .  S
C198        F203   1.384       .  S
C198        F204   1.385       .  S
C205        C206   1.412       .  A
C205        C210   1.416       .  A
C205        H212   1.081       .  S
C206        C207   1.425       .  A
C207        C208   1.405       .  A
C207        C214   1.523       .  S
C208        C209   1.404       .  A
C208        H213   1.080       .  S
C209        C210   1.419       .  A
C210        C211   1.519       .  S
C211        F215   1.384       .  S
C211        F216   1.383       .  S
C211        F217   1.384       .  S
C214        F218   1.383       .  S
C214        F219   1.384       .  S
C214        F220   1.385       .  S
C221        C222   1.411       .  A
C221        C226   1.407       .  A
C221        H228   1.082       .  S
C222        C223   1.422       .  A
C223        C224   1.403       .  A
C223        C230   1.521       .  S
C224        C225   1.401       .  A
C224        H229   1.086       .  S
C225        C226   1.415       .  A
C226        C227   1.520       .  S
C227        F231   1.385       .  S
C227        F232   1.383       .  S
C227        F233   1.384       .  S
C230        F234   1.383       .  S
C230        F235   1.383       .  S
C230        F236   1.385       .  S
C237        C238   1.404       .  A
C237        C242   1.410       .  A
C237        H244   1.083       .  S
C238        C636   1.493   1_554  S
C238        C239   1.420       .  A
C239        C240   1.413       .  A
C239        C786   1.519   1_554  S
C240        C241   1.406       .  A
C240        H245   1.083       .  S
C241        C242   1.423       .  A
C242        C243   1.520       .  S
C243        F247   1.385       .  S
C243        F248   1.383       .  S
C243        F249   1.382       .  S
C246        C779   1.519       .  S
C246        F250   1.383       .  S
C246        F251   1.384       .  S
C246        F252   1.384       .  S
C253        C254   1.409       .  A
C253        C258   1.413       .  A
C253        H260   1.083       .  S
C254        C255   1.424       .  A
C255        C256   1.407       .  A
C255        C262   1.521       .  S
C256        C257   1.404       .  A
C256        H261   1.084       .  S
C257        C258   1.418       .  A
C258        C259   1.518       .  S
C259        F263   1.384       .  S
C259        F264   1.383       .  S
C259        F265   1.384       .  S
C262        F266   1.383       .  S
C262        F267   1.383       .  S
C262        F268   1.385       .  S
C269        C270   1.404       .  A
C269        C274   1.407       .  A
C269        H816   1.082       .  S
C270        C685   1.487       .  S
C270        C271   1.422       .  A
C271        C272   1.405       .  A
C271        C278   1.522       .  S
C272        C273   1.404       .  A
C272        H277   1.082       .  S
C273        C274   1.423       .  A
C274        C275   1.522       .  S
C275        F279   1.385       .  S
C275        F280   1.383       .  S
C275        F281   1.384       .  S
H276        C809   1.082   1_554  S
C278        F282   1.383       .  S
C278        F283   1.384       .  S
C278        F284   1.385       .  S
C285        C286   1.405       .  A
C285        C290   1.414       .  A
C285        H292   1.082       .  S
C286        C287   1.423       .  A
C287        C288   1.410       .  A
C287        C294   1.521       .  S
C288        C289   1.406       .  A
C288        H293   1.082       .  S
C289        C290   1.426       .  A
C290        C291   1.520       .  S
C291        F295   1.385       .  S
C291        F296   1.383       .  S
C291        F297   1.383       .  S
C294        F298   1.384       .  S
C294        F299   1.383       .  S
C294        F300   1.385       .  S
C301        C302   1.402       .  A
C301        C306   1.409   1_455  A
C301        H308   1.082       .  S
C302        C303   1.410       .  A
C303        C304   1.404   1_455  A
C303        C310   1.519       .  S
C304        C305   1.405       .  A
C304        H309   1.083       .  S
C305        C306   1.416       .  A
C306        C307   1.517       .  S
C307        F311   1.385       .  S
C307        F312   1.384       .  S
C307        F313   1.382       .  S
C310        F314   1.383       .  S
C310        F315   1.383       .  S
C310        F316   1.384       .  S
C317        C318   1.405       .  A
C317        C322   1.415       .  A
C317        H324   1.083       .  S
C318        C319   1.420       .  A
C319        C320   1.401       .  A
C319        C326   1.523       .  S
C320        C321   1.402       .  A
C320        H325   1.084       .  S
C321        C322   1.419       .  A
C322        C323   1.516       .  S
C323        F327   1.385       .  S
C323        F328   1.383       .  S
C323        F329   1.383       .  S
C326        F330   1.384       .  S
C326        F331   1.382       .  S
C326        F332   1.385       .  S
C333        C334   1.406       .  A
C333        C338   1.405       .  A
C333        H340   1.083       .  S
C334        C335   1.416       .  A
C335        C336   1.411       .  A
C335        C342   1.517       .  S
C336        C337   1.407       .  A
C336        H341   1.083       .  S
C337        C338   1.418       .  A
C338        C339   1.521       .  S
C339        F343   1.385       .  S
C339        F344   1.384       .  S
C339        F345   1.382       .  S
C342        F346   1.383       .  S
C342        F347   1.384       .  S
C342        F348   1.384       .  S
C349        C350   1.402       .  A
C349        C354   1.411       .  A
C349        H356   1.084       .  S
C350        C351   1.414       .  A
C351        C352   1.406       .  A
C351        C358   1.521       .  S
C352        C353   1.407       .  A
C352        H357   1.084       .  S
C353        C354   1.419       .  A
C354        C355   1.516       .  S
C355        F359   1.385       .  S
C355        F360   1.383       .  S
C355        F361   1.382       .  S
C358        F362   1.382       .  S
C358        F363   1.384       .  S
C358        F364   1.385       .  S
C365        C366   1.408       .  A
C365        C370   1.405       .  A
C365        H372   1.081       .  S
C366        C367   1.422       .  A
C367        C368   1.406       .  A
C367        C374   1.521       .  S
C368        C369   1.403       .  A
C368        H373   1.083       .  S
C369        C370   1.414       .  A
C370        C371   1.520       .  S
C371        F375   1.384       .  S
C371        F376   1.383       .  S
C371        F377   1.384       .  S
C374        F378   1.384       .  S
C374        F379   1.383       .  S
C374        F380   1.385       .  S
C381        C382   1.406       .  A
C381        C386   1.410       .  A
C381        H388   1.082       .  S
C382        C597   1.499       .  S
C382        C383   1.426       .  A
C383        C384   1.410       .  A
C383        C930   1.522       .  S
C384        C385   1.404       .  A
C384        H389   1.082       .  S
C385        C386   1.424       .  A
C386        C387   1.522       .  S
C387        F391   1.384       .  S
C387        F392   1.384       .  S
C387        F393   1.383       .  S
C390        C923   1.522   1_554  S
C390        F395   1.383       .  S
C390        F934   1.384       .  S
C390        F936   1.385       .  S
F394        C930   1.383       .  S
F396        C930   1.385       .  S
C397        C398   1.405       .  A
C397        C402   1.415   1_545  A
C397        H404   1.084       .  S
C398        C399   1.419       .  A
C399        C400   1.401   1_545  A
C399        C406   1.522       .  S
C400        C401   1.406       .  A
C400        H405   1.084       .  S
C401        C402   1.421       .  A
C402        C403   1.515       .  S
C403        F407   1.385       .  S
C403        F408   1.383       .  S
C403        F409   1.383       .  S
C406        F410   1.383       .  S
C406        F411   1.384       .  S
C406        F412   1.385       .  S
C413        C414   1.407       .  A
C413        C418   1.412       .  A
C413        H420   1.083       .  S
C414        C415   1.420       .  A
C415        C416   1.404       .  A
C415        C422   1.521       .  S
C416        C417   1.405       .  A
C416        H421   1.083       .  S
C417        C418   1.419       .  A
C418        C419   1.517       .  S
C419        F423   1.385       .  S
C419        F424   1.383       .  S
C419        F425   1.383       .  S
C422        F426   1.384       .  S
C422        F427   1.382       .  S
C422        F428   1.386       .  S
C429        C434   1.413   1_565  A
C429        C970   1.405   1_554  A
C429        H436   1.083       .  S
C430        C431   1.421       .  A
C430        C969   1.405       .  A
C431        C432   1.404   1_565  A
C431        C438   1.523       .  S
C432        C433   1.402       .  A
C432        H437   1.083       .  S
C433        C974   1.419       .  A
C434        C973   1.418   1_554  A
C434        C435   1.517       .  S
C435        F439   1.384       .  S
C435        F440   1.383       .  S
C435        F981   1.384       .  S
C438        F443   1.382       .  S
C438        F444   1.385       .  S
C438        F982   1.383       .  S
F441        C975   1.384       .  S
F442        C978   1.383       .  S
C445        C446   1.407       .  A
C445        C450   1.400       .  A
C445        H452   1.081       .  S
C446        C447   1.420       .  A
C447        C448   1.403       .  A
C447        C454   1.521       .  S
C448        C449   1.402       .  A
C448        H453   1.081       .  S
C449        C450   1.413       .  A
C450        C451   1.521       .  S
C451        F455   1.385       .  S
C451        F456   1.383       .  S
C451        F457   1.383       .  S
C454        F458   1.383       .  S
C454        F459   1.383       .  S
C454        F460   1.385       .  S
C461        C462   1.403       .  A
C461        C466   1.409       .  A
C461        H468   1.082       .  S
C462        C463   1.422       .  A
C463        C464   1.405       .  A
C463        C470   1.522       .  S
C464        C465   1.404       .  A
C464        H469   1.082       .  S
C465        C466   1.425       .  A
C466        C467   1.522       .  S
C467        F471   1.385       .  S
C467        F472   1.383       .  S
C467        F473   1.384       .  S
C470        F474   1.383       .  S
C470        F475   1.383       .  S
C470        F476   1.385       .  S
C477        C478   1.406       .  A
C477        C482   1.407   1_455  A
C477        H484   1.084       .  S
C478        C479   1.415       .  A
C479        C480   1.407   1_455  A
C479        C486   1.517       .  S
C480        C481   1.401       .  A
C480        H485   1.084       .  S
C481        C482   1.410       .  A
C482        C483   1.518       .  S
C483        F487   1.384       .  S
C483        F488   1.383       .  S
C483        F489   1.383       .  S
C486        F490   1.383       .  S
C486        F491   1.382       .  S
C486        F492   1.385       .  S
C493        C494   1.407       .  A
C493        C498   1.408       .  A
C493        H500   1.082       .  S
C494        C495   1.424       .  A
C495        C496   1.412       .  A
C495        C502   1.518       .  S
C496        C497   1.404       .  A
C496        H501   1.082       .  S
C497        C498   1.424       .  A
C498        C499   1.524       .  S
C499        F503   1.385       .  S
C499        F504   1.383       .  S
C499        F505   1.384       .  S
C502        F506   1.383       .  S
C502        F507   1.383       .  S
C502        F508   1.385       .  S
C509        C510   1.401       .  A
C509        C514   1.410       .  A
C509       H1056   1.083   1_554  S
C510        C542   1.480   1_554  S
C510        C511   1.417       .  A
C511        C512   1.404       .  A
C511        C518   1.521       .  S
C512        C513   1.406       .  A
C512        H517   1.082       .  S
C513        C514   1.427       .  A
C514        C515   1.522       .  S
C515        F519   1.384       .  S
C515        F520   1.383       .  S
C515        F521   1.385       .  S
H516       C1049   1.083       .  S
C518        F522   1.383       .  S
C518        F523   1.384       .  S
C518        F524   1.384       .  S
C525        C526   1.407       .  A
C525        C530   1.411       .  A
C525        H532   1.081       .  S
C526        C527   1.424       .  A
C527        C528   1.413       .  A
C527        C534   1.521       .  S
C528        C529   1.408       .  A
C528        H533   1.081       .  S
C529        C530   1.424       .  A
C530        C531   1.521       .  S
C531        F535   1.385       .  S
C531        F536   1.383       .  S
C531        F537   1.384       .  S
C534        F538   1.383       .  S
C534        F539   1.384       .  S
C534        F540   1.385       .  S
In541       O543   2.243       .  S
In541       O544   2.267       .  S
In541       O552   2.261       .  S
In541       O546   2.253       .  S
In541       O548   2.251       .  S
In541       O549   2.280       .  S
In541       O550   2.215       .  S
In541       O553   2.224       .  S
C542        O548   1.266       .  A
C542        O550   1.260       .  A
O543        C551   1.260       .  A
O544        C551   1.262       .  A
C545        O552   1.263       .  A
C545        O546   1.259       .  A
C545       C1066   1.502       .  S
C547        O549   1.264       .  A
C547        O553   1.256       .  A
C547       C1018   1.476       .  S
C551       C1034   1.500       .  S
In554       O556   2.221       .  S
In554       O557   2.263       .  S
In554       O561   2.237       .  S
In554       O562   2.281       .  S
In554       O563   2.206       .  S
C555        O561   1.262       .  A
C555        O563   1.260       .  A
C555        C986   1.478       .  S
O556        C564   1.257       .  A
O557        C564   1.266       .  A
C558        O565   1.266       .  A
C558        O559   1.258       .  A
C558       C1005   1.491       .  S
C560        O562   1.267       .  A
C560        C970   1.485       .  S
C564       C1037   1.493       .  S
In567       O569   2.223       .  S
In567       O570   2.264       .  S
In567       O578   2.254       .  S
In567       O572   2.218       .  S
In567       O574   2.229       .  S
In567       O575   2.280       .  S
In567       O576   2.210       .  S
In567       O579   2.212       .  S
C568        O574   1.262       .  A
C568        O576   1.260       .  A
C568        C989   1.468       .  S
O569        C577   1.257       .  A
O570        C577   1.267       .  A
C571        O578   1.266       .  A
C571        O572   1.258       .  A
C571       C1002   1.487       .  S
C573        O575   1.267       .  A
C573        O579   1.259       .  A
C573        C941   1.496       .  S
C577        C954   1.489       .  S
In580       O582   2.228       .  S
In580       O583   2.260       .  S
In580       O591   2.257       .  S
In580       O585   2.232       .  S
In580       O587   2.241       .  S
In580       O588   2.265       .  S
In580       O589   2.230       .  S
In580       O592   2.227       .  S
C581        O587   1.261       .  A
C581        O589   1.259       .  A
C581        C909   1.476       .  S
O582        C590   1.261       .  A
O583        C590   1.262       .  A
C584        O591   1.265       .  A
C584        O585   1.258       .  A
C584        C925   1.495       .  S
C586        O588   1.263       .  A
C586        O592   1.258       .  A
C586        C890   1.475       .  S
C590        C957   1.489       .  S
In593       O595   2.217       .  S
In593       O596   2.262       .  S
In593       O604   2.266       .  S
In593       O598   2.230       .  S
In593       O600   2.233       .  S
In593       O601   2.283       .  S
In593       O602   2.232       .  S
In593       O605   2.208       .  S
C594        O600   1.261       .  A
C594        O602   1.261       .  A
C594        C906   1.487       .  S
O595        C603   1.259       .  A
O596        C603   1.266       .  A
C597        O604   1.266       .  A
C597        O598   1.257       .  A
C599        O601   1.266       .  A
C599        O605   1.256       .  A
C599        C858   1.484       .  S
C603        C874   1.485       .  S
In606       O608   2.235       .  S
In606       O609   2.256       .  S
In606       O617   2.264       .  S
In606       O611   2.244       .  S
In606       O613   2.245       .  S
In606       O614   2.260       .  S
In606       O615   2.237       .  S
In606       O618   2.204       .  S
C607        O613   1.266       .  A
C607        O615   1.258       .  A
C607       C1053   1.493       .  S
O608        C616   1.259       .  A
O609        C616   1.264       .  A
C610        O617   1.264       .  A
C610        O611   1.261       .  A
C610       C1069   1.502       .  S
C612        O614   1.266       .  A
C612        O618   1.258       .  A
C612        C842   1.465       .  S
C616        C877   1.485       .  S
In619       O621   2.232       .  S
In619       O622   2.274       .  S
In619       O630   2.260       .  S
In619       O624   2.254       .  S
In619       O626   2.240       .  S
In619       O627   2.285       .  S
In619       O628   2.232       .  S
In619       O631   2.222       .  S
C620        O626   1.265       .  A
C620        O628   1.259       .  A
C620        C813   1.488       .  S
O621        C629   1.257       .  A
O622        C629   1.266       .  A
C623        O630   1.265       .  A
C623        O624   1.260       .  A
C623        C829   1.503       .  S
C625        O627   1.267       .  A
C625        O631   1.258       .  A
C625        C893   1.487       .  S
C629        C794   1.496       .  S
In632       O634   2.242       .  S
In632       O635   2.264       .  S
In632       O643   2.258       .  S
In632       O637   2.251       .  S
In632       O639   2.246       .  S
In632       O640   2.256       .  S
In632       O641   2.213       .  S
In632       O644   2.220       .  S
C633        O639   1.263       .  A
C633        O641   1.260       .  A
C633        C765   1.476       .  S
O634        C642   1.261       .  A
O635        C642   1.261       .  A
C636        O643   1.263       .  A
C636        O637   1.259       .  A
C638        O640   1.264       .  A
C638        O644   1.258       .  A
C638       C1021   1.467       .  S
C642        C797   1.491       .  S
In645       O647   2.222       .  S
In645       O648   2.278       .  S
In645       O656   2.271       .  S
In645       O650   2.256       .  S
In645       O652   2.240       .  S
In645       O653   2.277       .  S
In645       O654   2.231       .  S
In645       O657   2.217       .  S
C646        O652   1.263       .  A
C646        O654   1.261       .  A
C646        C762   1.489       .  S
O647        C655   1.258       .  A
O648        C655   1.265       .  A
C649        O656   1.264       .  A
C649        O650   1.259       .  A
C649        C781   1.498       .  S
C651        O653   1.264       .  A
C651        O657   1.256       .  A
C651        C845   1.475       .  S
C655        C746   1.500       .  S
In658       O660   2.220       .  S
In658       O661   2.268       .  S
In658       O669   2.243       .  S
In658       O663   2.230       .  S
In658       O665   2.230       .  S
In658       O666   2.282       .  S
In658       O667   2.229       .  S
In658       O670   2.203       .  S
C659        O665   1.261       .  A
C659        O667   1.262       .  A
C659        C714   1.478       .  S
O660        C668   1.260       .  A
O661        C668   1.264       .  A
C662        O669   1.265       .  A
C662        O663   1.259       .  A
C662        C733   1.484       .  S
C664        O666   1.267       .  A
C664        O670   1.255       .  A
C664        C938   1.486       .  S
C668        C749   1.496       .  S
In671       O673   2.232       .  S
In671       O674   2.258       .  S
In671       O678   2.242       .  S
In671       O679   2.268       .  S
In671       O680   2.225       .  S
C672        O678   1.262       .  A
C672        O680   1.261       .  A
C672        C717   1.486       .  S
O673        C681   1.260       .  A
O674        C681   1.264       .  A
C675        O682   1.264       .  A
C675        O676   1.260       .  A
C675        C730   1.486       .  S
C677        O683   1.260       .  A
C677        C973   1.484       .  S
C681        C701   1.496       .  S
In684       O686   2.229       .  S
In684       O687   2.276       .  S
In684       O695   2.265       .  S
In684       O689   2.238       .  S
In684       O691   2.250       .  S
In684       O692   2.277       .  S
In684       O693   2.227       .  S
In684       O696   2.207       .  S
C685        O691   1.264       .  A
C685        O693   1.257       .  A
O686        C694   1.258       .  A
O687        C694   1.266       .  A
C688        O695   1.266       .  A
C688        O689   1.261       .  A
C688        C826   1.498       .  S
C690        O692   1.268       .  A
C690        O696   1.260       .  A
C690        C861   1.485       .  S
C694        C698   1.496       .  S
C697        C698   1.407       .  A
C697        C702   1.415       .  A
C697        H704   1.080       .  S
C698        C699   1.424       .  A
C699        C700   1.408       .  A
C699        C706   1.523       .  S
C700        C701   1.405       .  A
C700        H705   1.081       .  S
C701        C702   1.421       .  A
C702        C703   1.519       .  S
C703        F707   1.384       .  S
C703        F708   1.384       .  S
C703        F709   1.383       .  S
C706        F710   1.383       .  S
C706        F711   1.384       .  S
C706        F712   1.385       .  S
C713        C714   1.403       .  A
C713        C718   1.406       .  A
C713        H720   1.082       .  S
C714        C715   1.416       .  A
C715        C716   1.404       .  A
C715        C722   1.522       .  S
C716        C717   1.407       .  A
C716        H721   1.082       .  S
C717        C718   1.421       .  A
C718        C719   1.520       .  S
C719        F723   1.385       .  S
C719        F724   1.383       .  S
C719        F725   1.383       .  S
C722        F726   1.383       .  S
C722        F727   1.384       .  S
C722        F728   1.385       .  S
C729        C730   1.404       .  A
C729        C734   1.408       .  A
C729        H736   1.083       .  S
C730        C731   1.419       .  A
C731        C732   1.405       .  A
C731        C738   1.519       .  S
C732        C733   1.402       .  A
C732        H737   1.084       .  S
C733        C734   1.422       .  A
C734        C735   1.522       .  S
C735        F739   1.385       .  S
C735        F740   1.381       .  S
C735        F741   1.383       .  S
C738        F742   1.382       .  S
C738        F743   1.384       .  S
C738        F744   1.385       .  S
C745        C746   1.411       .  A
C745        C750   1.416       .  A
C745        H752   1.081       .  S
C746        C747   1.425       .  A
C747        C748   1.405       .  A
C747        C754   1.524       .  S
C748        C749   1.405       .  A
C748        H753   1.080       .  S
C749        C750   1.419       .  A
C750        C751   1.519       .  S
C751        F755   1.384       .  S
C751        F756   1.383       .  S
C751        F757   1.384       .  S
C754        F758   1.383       .  S
C754        F759   1.384       .  S
C754        F760   1.385       .  S
C761        C762   1.411       .  A
C761        C766   1.406       .  A
C761        H768   1.082       .  S
C762        C763   1.423       .  A
C763        C764   1.403       .  A
C763        C770   1.520       .  S
C764        C765   1.401       .  A
C764        H769   1.086       .  S
C765        C766   1.414       .  A
C766        C767   1.520       .  S
C767        F771   1.385       .  S
C767        F772   1.383       .  S
C767        F773   1.384       .  S
C770        F774   1.383       .  S
C770        F775   1.383       .  S
C770        F776   1.385       .  S
C777        C778   1.404       .  A
C777        C782   1.411       .  A
C777        H784   1.083       .  S
C778        C779   1.421       .  A
C779        C780   1.413       .  A
C780        C781   1.406       .  A
C780        H785   1.083       .  S
C781        C782   1.424       .  A
C782        C783   1.520       .  S
C783        F787   1.385       .  S
C783        F788   1.383       .  S
C783        F789   1.382       .  S
C786        F790   1.383       .  S
C786        F791   1.384       .  S
C786        F792   1.384   1_556  S
C793        C794   1.409       .  A
C793        C798   1.413       .  A
C793        H800   1.083       .  S
C794        C795   1.424       .  A
C795        C796   1.407       .  A
C795        C802   1.521       .  S
C796        C797   1.404       .  A
C796        H801   1.084       .  S
C797        C798   1.418       .  A
C798        C799   1.518       .  S
C799        F803   1.384       .  S
C799        F804   1.383       .  S
C799        F805   1.384       .  S
C802        F806   1.383       .  S
C802        F807   1.383       .  S
C802        F808   1.385       .  S
C809        C810   1.404       .  A
C809        C814   1.407       .  A
C810        C811   1.422       .  A
C811        C812   1.405       .  A
C811        C818   1.522       .  S
C812        C813   1.404       .  A
C812        H817   1.082       .  S
C813        C814   1.423       .  A
C814        C815   1.522       .  S
C815        F819   1.385       .  S
C815        F820   1.383       .  S
C815        F821   1.384       .  S
C818        F822   1.383       .  S
C818        F823   1.384       .  S
C818        F824   1.385       .  S
C825        C826   1.405       .  A
C825        C830   1.414       .  A
C825        H832   1.082       .  S
C826        C827   1.423       .  A
C827        C828   1.410       .  A
C827        C834   1.521       .  S
C828        C829   1.406       .  A
C828        H833   1.082       .  S
C829        C830   1.426       .  A
C830        C831   1.520       .  S
C831        F835   1.385       .  S
C831        F836   1.383       .  S
C831        F837   1.383       .  S
C834        F838   1.384       .  S
C834        F839   1.383       .  S
C834        F840   1.385       .  S
C841        C842   1.402       .  A
C841        C846   1.409   1_455  A
C841        H848   1.083       .  S
C842        C843   1.410       .  A
C843        C844   1.403   1_455  A
C843        C850   1.519       .  S
C844        C845   1.405       .  A
C844        H849   1.084       .  S
C845        C846   1.416       .  A
C846        C847   1.517       .  S
C847        F851   1.385       .  S
C847        F852   1.384       .  S
C847        F853   1.382       .  S
C850        F854   1.383       .  S
C850        F855   1.383       .  S
C850        F856   1.384       .  S
C857        C858   1.405       .  A
C857        C862   1.415       .  A
C857        H864   1.083       .  S
C858        C859   1.420       .  A
C859        C860   1.401       .  A
C859        C866   1.523       .  S
C860        C861   1.402       .  A
C860        H865   1.084       .  S
C861        C862   1.419       .  A
C862        C863   1.516       .  S
C863        F867   1.385       .  S
C863        F868   1.383       .  S
C863        F869   1.383       .  S
C866        F870   1.384       .  S
C866        F871   1.382       .  S
C866        F872   1.385       .  S
C873        C874   1.406       .  A
C873        C878   1.405       .  A
C873        H880   1.083       .  S
C874        C875   1.416       .  A
C875        C876   1.411       .  A
C875        C882   1.517       .  S
C876        C877   1.407       .  A
C876        H881   1.083       .  S
C877        C878   1.418       .  A
C878        C879   1.521       .  S
C879        F883   1.385       .  S
C879        F884   1.384       .  S
C879        F885   1.382       .  S
C882        F886   1.383       .  S
C882        F887   1.384       .  S
C882        F888   1.384       .  S
C889        C890   1.402       .  A
C889        C894   1.411       .  A
C889        H896   1.084       .  S
C890        C891   1.414       .  A
C891        C892   1.406       .  A
C891        C898   1.521       .  S
C892        C893   1.407       .  A
C892        H897   1.084       .  S
C893        C894   1.419       .  A
C894        C895   1.516       .  S
C895        F899   1.385       .  S
C895        F900   1.383       .  S
C895        F901   1.382       .  S
C898        F902   1.382       .  S
C898        F903   1.384       .  S
C898        F904   1.385       .  S
C905        C906   1.408       .  A
C905        C910   1.405       .  A
C905        H912   1.081       .  S
C906        C907   1.422       .  A
C907        C908   1.406       .  A
C907        C914   1.521       .  S
C908        C909   1.403       .  A
C908        H913   1.083       .  S
C909        C910   1.414       .  A
C910        C911   1.520       .  S
C911        F915   1.384       .  S
C911        F916   1.383       .  S
C911        F917   1.384       .  S
C914        F918   1.384       .  S
C914        F919   1.383       .  S
C914        F920   1.385       .  S
C921        C922   1.406       .  A
C921        C926   1.410       .  A
C921        H928   1.082       .  S
C922        C923   1.426       .  A
C923        C924   1.410       .  A
C924        C925   1.404       .  A
C924        H929   1.082       .  S
C925        C926   1.424       .  A
C926        C927   1.522       .  S
C927        F931   1.385       .  S
C927        F932   1.384       .  S
C927        F933   1.383       .  S
C930        F935   1.383       .  S
C937        C938   1.405       .  A
C937        C942   1.415   1_545  A
C937        H944   1.084       .  S
C938        C939   1.419       .  A
C939        C940   1.402   1_545  A
C939        C946   1.522       .  S
C940        C941   1.406       .  A
C940        H945   1.084       .  S
C941        C942   1.422       .  A
C942        C943   1.515       .  S
C943        F947   1.385       .  S
C943        F948   1.383       .  S
C943        F949   1.383       .  S
C946        F950   1.383       .  S
C946        F951   1.384       .  S
C946        F952   1.385       .  S
C953        C954   1.407       .  A
C953        C958   1.412       .  A
C953        H960   1.083       .  S
C954        C955   1.420       .  A
C955        C956   1.404       .  A
C955        C962   1.521       .  S
C956        C957   1.405       .  A
C956        H961   1.083       .  S
C957        C958   1.419       .  A
C958        C959   1.517       .  S
C959        F963   1.385       .  S
C959        F964   1.383       .  S
C959        F965   1.383       .  S
C962        F966   1.384       .  S
C962        F967   1.382       .  S
C962        F968   1.386       .  S
C969        C974   1.414   1_565  A
C969        H976   1.083       .  S
C970        C971   1.422       .  A
C971        C972   1.405   1_565  A
C971        C978   1.523       .  S
C972        C973   1.402       .  A
C972        H977   1.083       .  S
C974        C975   1.517       .  S
C975        F979   1.384       .  S
C975        F980   1.383       .  S
C978        F983   1.382       .  S
C978        F984   1.385       .  S
C985        C986   1.407       .  A
C985        C990   1.400       .  A
C985        H992   1.081       .  S
C986        C987   1.420       .  A
C987        C988   1.403       .  A
C987        C994   1.520       .  S
C988        C989   1.402       .  A
C988        H993   1.081       .  S
C989        C990   1.413       .  A
C990        C991   1.521       .  S
C991        F995   1.385       .  S
C991        F996   1.382       .  S
C991        F997   1.383       .  S
C994        F998   1.383       .  S
C994        F999   1.383       .  S
C994       F1000   1.385       .  S
C1001      C1002   1.403       .  A
C1001      C1006   1.409       .  A
C1001      H1008   1.082       .  S
C1002      C1003   1.422       .  A
C1003      C1004   1.405       .  A
C1003      C1010   1.522       .  S
C1004      C1005   1.404       .  A
C1004      H1009   1.082       .  S
C1005      C1006   1.425       .  A
C1006      C1007   1.522       .  S
C1007      F1011   1.385       .  S
C1007      F1012   1.383       .  S
C1007      F1013   1.384       .  S
C1010      F1014   1.383       .  S
C1010      F1015   1.383       .  S
C1010      F1016   1.385       .  S
C1017      C1018   1.406       .  A
C1017      C1022   1.407   1_455  A
C1017      H1024   1.084       .  S
C1018      C1019   1.415       .  A
C1019      C1020   1.407   1_455  A
C1019      C1026   1.517       .  S
C1020      C1021   1.401       .  A
C1020      H1025   1.084       .  S
C1021      C1022   1.410       .  A
C1022      C1023   1.518       .  S
C1023      F1027   1.384   1_556  S
C1023      F1028   1.383       .  S
C1023      F1029   1.383       .  S
C1026      F1030   1.383       .  S
C1026      F1031   1.382       .  S
C1026      F1032   1.385       .  S
C1033      C1034   1.407       .  A
C1033      C1038   1.408       .  A
C1033      H1040   1.082       .  S
C1034      C1035   1.424       .  A
C1035      C1036   1.412       .  A
C1035      C1042   1.518       .  S
C1036      C1037   1.404       .  A
C1036      H1041   1.082       .  S
C1037      C1038   1.424       .  A
C1038      C1039   1.524       .  S
C1039      F1043   1.385       .  S
C1039      F1044   1.383       .  S
C1039      F1045   1.384       .  S
C1042      F1046   1.383       .  S
C1042      F1047   1.383       .  S
C1042      F1048   1.385       .  S
C1049      C1050   1.401       .  A
C1049      C1054   1.410       .  A
C1050      C1051   1.417       .  A
C1051      C1052   1.404       .  A
C1051      C1058   1.521       .  S
C1052      C1053   1.406       .  A
C1052      H1057   1.082       .  S
C1053      C1054   1.427       .  A
C1054      C1055   1.522       .  S
C1055      F1059   1.384       .  S
C1055      F1060   1.383       .  S
C1055      F1061   1.385       .  S
C1058      F1062   1.383       .  S
C1058      F1063   1.384       .  S
C1058      F1064   1.384       .  S
C1065      C1066   1.407       .  A
C1065      C1070   1.411       .  A
C1065      H1072   1.081       .  S
C1066      C1067   1.424       .  A
C1067      C1068   1.413       .  A
C1067      C1074   1.521       .  S
C1068      C1069   1.408       .  A
C1068      H1073   1.081       .  S
C1069      C1070   1.423       .  A
C1070      C1071   1.521       .  S
C1071      F1075   1.385       .  S
C1071      F1076   1.383       .  S
C1071      F1077   1.384       .  S
C1074      F1078   1.383       .  S
C1074      F1079   1.384       .  S
C1074      F1080   1.385       .  S
