geometry optimzed in LAMMPS
_audit_creation_date              2020-12-01 
_audit_creation_method            'lammps2cif' 
_symmetry_space_group_name_H-M    'P1' 
_symmetry_Int_Tables_number       1 
_symmetry_cell_setting            triclinic 
loop_ 
_symmetry_equiv_pos_as_xyz 
  x,y,z 
_cell_length_a                    75.62158403 
_cell_length_b                    75.71469704711885 
_cell_length_c                    31.716975589631843 
_cell_angle_alpha                 89.7502457725693 
_cell_angle_beta                  90.64418767869525 
_cell_angle_gamma                 120.26566604574381 
loop_ 
_atom_site_label 
_atom_site_type_symbol 
_atom_site_fract_x 
_atom_site_fract_y 
_atom_site_fract_z 
_atom_site_charge 
O1          O  0.32868113  0.87660900  0.41141295    -0.85000
O2          O  0.30757686  0.85390020  0.48045215    -0.82000
C3          C  0.30574432  0.83647788  0.47428079     0.98500
O4          O  0.32116984  0.83426606  0.47739225    -0.82000
O5          O  0.36204846  0.84422424  0.47718800    -0.84700
C6          C  0.36842959  0.84808312  0.43963485     1.03000
O7          O  0.36823479  0.86237685  0.41965796    -0.77500
O8          O  0.36172017  0.89378839  0.39913651    -0.77600
C9          C  0.34332195  0.88533513  0.38607155     1.03000
O10         O  0.35253247  0.91235196  0.46346495    -0.85000
O11         O  0.33453532  0.88883564  0.53318956    -0.82000
C12         C  0.33057109  0.87574412  0.56156135     0.98500
O13         O  0.32883877  0.85863808  0.55260512    -0.82100
O14         O  0.36958349  0.87108340  0.54676580    -0.84700
C15         C  0.38755967  0.87954266  0.53291435     1.03000
O16         O  0.39098440  0.88369749  0.49406434    -0.77500
O17         O  0.38149097  0.91346293  0.47764979    -0.77600
C18         C  0.37132584  0.92236962  0.47392762     1.02900
Cr19       Cr  0.33213467  0.88226085  0.47255976     1.93700
Cr20       Cr  0.34564209  0.85353617  0.51074962     1.93200
Cr21       Cr  0.37377789  0.88737354  0.44968331     1.39100
O22         O  0.35048739  0.87432221  0.47739625    -1.22700
O23         O  0.32190906  0.87465452  0.91823289    -0.85000
O24         O  0.30575633  0.84969064  0.98665847    -0.82000
C25         C  0.30539421  0.83392801  0.97235946     0.98500
O26         O  0.32198896  0.83399657  0.96725895    -0.82000
O27         O  0.36441694  0.84880396  0.96091067    -0.84700
C28         C  0.37045580  0.85579104  0.92430593     1.03000
O29         O  0.36912290  0.87071441  0.91097526    -0.77500
O30         O  0.35393304  0.89603203  0.90052221    -0.77600
C31         C  0.33517780  0.88435776  0.89048550     1.03000
O32         O  0.34291805  0.90980038  0.97141232    -0.85000
O33         O  0.33194619  0.88385947  0.04115379    -0.82000
C34         C  0.33054001  0.86967035  0.06464085     0.98500
O35         O  0.32947058  0.85387432  0.04856113    -0.82100
O36         O  0.37026660  0.87067638  0.03746991    -0.84700
C37         C  0.38778562  0.88395119  0.02521458     1.03000
O38         O  0.39053404  0.89139485  0.98823291    -0.77500
O39         O  0.37443325  0.91673419  0.97936381    -0.77600
C40         C  0.36150660  0.92255661  0.97901645     1.02900
Cr41       Cr  0.32722723  0.87926398  0.97928153     1.93700
Cr42       Cr  0.34659076  0.85340743  0.00116368     1.93200
Cr43       Cr  0.37029480  0.89241345  0.94711353     1.39100
O44         O  0.34822049  0.87507253  0.97558614    -1.22700
O45         O  0.44026302  0.10923632  0.11734082    -0.85000
O46         O  0.44462450  0.14393034  0.08046647    -0.82000
C47         C  0.45401038  0.16113588  0.06265539     0.98500
O48         O  0.46636403  0.16421730  0.03326028    -0.82000
O49         O  0.50047934  0.16667393  0.07310903    -0.84700
C50         C  0.51207135  0.16109383  0.08987859     1.03000
O51         O  0.50790989  0.14279062  0.08638173    -0.77500
O52         O  0.47288772  0.12299558  0.13420776    -0.77600
C53         C  0.45451345  0.11621589  0.14486007     1.03000
O54         O  0.43555270  0.09088274  0.03409741    -0.85000
O55         O  0.43735863  0.12510193  0.99723491    -0.82000
C56         C  0.44911917  0.13002474  0.96576478     0.98500
O57         O  0.46820362  0.13813241  0.97086715    -0.82100
O58         O  0.50358359  0.14320901  0.00432194    -0.84700
C59         C  0.50139870  0.12556814  0.00055478     1.03000
O60         O  0.48963033  0.11118120  0.02481649    -0.77500
O61         O  0.45674413  0.08881491  0.07849719    -0.77600
C62         C  0.44188560  0.08033445  0.05289963     1.02900
Cr63       Cr  0.44150506  0.11810759  0.05678266     1.93700
Cr64       Cr  0.48344337  0.15134502  0.02291942     1.93200
Cr65       Cr  0.48075764  0.11726702  0.07897866     1.39100
O66         O  0.46843503  0.12884974  0.05262776    -1.22700
O67         O  0.43711933  0.12165101  0.61852181    -0.85000
O68         O  0.44472530  0.15059267  0.55573332    -0.82000
C69         C  0.46183495  0.16600882  0.56625686     0.98500
O70         O  0.47782067  0.16480800  0.56603278    -0.82000
O71         O  0.50364601  0.14921328  0.56772659    -0.84700
C72         C  0.50267643  0.14207906  0.60443074     1.03000
O73         O  0.48657185  0.12651129  0.61675571    -0.77500
O74         O  0.44572844  0.09802527  0.62247386    -0.77600
C75         C  0.43962671  0.10894509  0.63995914     1.03000
O76         O  0.42174987  0.08913744  0.55517349    -0.85000
O77         O  0.43375943  0.11829756  0.49332472    -0.82000
C78         C  0.44642230  0.13189573  0.46898063     0.98500
O79         O  0.46258701  0.14701620  0.48380637    -0.82100
O80         O  0.48630977  0.12940932  0.48833273    -0.84700
C81         C  0.49233813  0.11742216  0.50016183     1.03000
O82         O  0.48860231  0.11001714  0.53692097    -0.77500
O83         O  0.44711119  0.08437561  0.53891432    -0.77600
C84         C  0.42817154  0.07771676  0.54092845     1.02900
Cr85       Cr  0.43610381  0.12029500  0.55564464     1.93700
Cr86       Cr  0.48105979  0.14601003  0.52846823     1.93200
Cr87       Cr  0.46656413  0.10609781  0.57700412     1.39100
O88         O  0.46131281  0.12422464  0.55378245    -1.22700
O89         O  0.66832713  0.13227651  0.19970935    -0.85000
O90         O  0.69119554  0.15723893  0.26627104    -0.82000
C91         C  0.69262606  0.17436351  0.25872219     0.98500
O92         O  0.67700759  0.17625189  0.26015853    -0.82000
O93         O  0.63601326  0.16576200  0.25838738    -0.84700
C94         C  0.62934418  0.16013414  0.22107519     1.03000
O95         O  0.62822358  0.14431718  0.20575394    -0.77500
O96         O  0.63508109  0.11280538  0.19233193    -0.77600
C97         C  0.65273049  0.12240585  0.17631060     1.03000
O98         O  0.64684306  0.09799903  0.25731559    -0.85000
O99         O  0.66689797  0.12467165  0.32423550    -0.82000
C100        C  0.67056462  0.13856721  0.35073325     0.98500
O101        O  0.67078644  0.15477532  0.33930201    -0.82100
O102        O  0.63029858  0.14234008  0.33387020    -0.84700
C103        C  0.61201617  0.13272896  0.32130139     1.03000
O104        O  0.60768704  0.12632618  0.28365971    -0.77500
O105        O  0.61822816  0.09672714  0.27419754    -0.77600
C106        C  0.62839265  0.08789121  0.26948448     1.02900
Cr107      Cr  0.66694331  0.12860555  0.26220503     1.93700
Cr108      Cr  0.65323128  0.15810079  0.29540609     1.93200
Cr109      Cr  0.62414497  0.12114187  0.24103924     1.39100
O110        O  0.64812901  0.13600428  0.26629302    -1.22700
O111        O  0.66982750  0.13217791  0.69929224    -0.85000
O112        O  0.69173943  0.15731147  0.76621369    -0.82000
C113        C  0.69221324  0.17414659  0.76059851     0.98500
O114        O  0.67605573  0.17508073  0.76353885    -0.82000
O115        O  0.63415968  0.16153660  0.76095469    -0.84700
C116        C  0.62808456  0.15638721  0.72315498     1.03000
O117        O  0.62834952  0.14150778  0.70648476    -0.77500
O118        O  0.63689777  0.11117533  0.69167970    -0.77600
C119        C  0.65442739  0.12181822  0.67570003     1.03000
O120        O  0.64979904  0.09722738  0.75650507    -0.85000
O121        O  0.66905638  0.12376921  0.82369884    -0.82000
C122        C  0.67175450  0.13705137  0.85097222     0.98500
O123        O  0.67069020  0.15268278  0.84053701    -0.82100
O124        O  0.62944197  0.13709041  0.83476748    -0.84700
C125        C  0.61123925  0.12662713  0.82181727     1.03000
O126        O  0.60749880  0.12191529  0.78319564    -0.77500
O127        O  0.62022883  0.09405087  0.77280004    -0.77600
C128        C  0.63142767  0.08629393  0.76880116     1.02900
Cr129      Cr  0.66866939  0.12806093  0.76175223     1.93700
Cr130      Cr  0.65235449  0.15501710  0.79733341     1.93200
Cr131      Cr  0.62510014  0.11836013  0.74058302     1.39100
O132        O  0.64880237  0.13391303  0.76656099    -1.22700
O133        O  0.55383057  0.87686976  0.31639544    -0.85000
O134        O  0.55367377  0.85647644  0.24534627    -0.82000
C135        C  0.53686245  0.83981554  0.24955022     0.98500
O136        O  0.52014749  0.83950993  0.24437505    -0.82000
O137        O  0.49204446  0.85279726  0.23908839    -0.84700
C138        C  0.48827559  0.85532611  0.27657544     1.03000
O139        O  0.50224283  0.86861237  0.29968711    -0.77500
O140        O  0.54050035  0.89613420  0.33026967    -0.77600
C141        C  0.54774093  0.88503105  0.34261708     1.03000
O142        O  0.57198042  0.91527738  0.27163474    -0.85000
O143        O  0.56742963  0.89397409  0.19764018    -0.82000
C144        C  0.55878201  0.88164657  0.16751979     0.98500
O145        O  0.54189273  0.86528171  0.17328728    -0.82100
O146        O  0.51625036  0.88097941  0.17524905    -0.84700
C147        C  0.50791302  0.89075597  0.18795030     1.03000
O148        O  0.50756826  0.89423101  0.22708636    -0.77500
O149        O  0.54698070  0.92081869  0.25533916    -0.77600
C150        C  0.56566369  0.92757741  0.26342140     1.02900
Cr151      Cr  0.55989442  0.88535241  0.25699702     1.93700
Cr152      Cr  0.51882885  0.86105285  0.21101807     1.93200
Cr153      Cr  0.52510391  0.89392521  0.27585402     1.39100
O154        O  0.53460550  0.88024558  0.24792188    -1.22700
O155        O  0.56677107  0.89406507  0.82495074    -0.85000
O156        O  0.55813748  0.85934237  0.78245581    -0.82000
C157        C  0.54518371  0.84203124  0.76820731     0.98500
O158        O  0.53044731  0.83982112  0.74528505    -0.82000
O159        O  0.50190265  0.84585332  0.78697707    -0.84700
C160        C  0.49276970  0.85447105  0.80173783     1.03000
O161        O  0.50007847  0.87336948  0.79588096    -0.77500
O162        O  0.53556985  0.88700915  0.84214966    -0.77600
C163        C  0.55286428  0.88950785  0.85232771     1.03000
O164        O  0.57304956  0.91477870  0.74227151    -0.85000
O165        O  0.56432240  0.88002702  0.70117118    -0.82000
C166        C  0.55092205  0.87475175  0.67203435     0.98500
O167        O  0.53218863  0.86688168  0.68033369    -0.82100
O168        O  0.50232152  0.87089945  0.71621535    -0.84700
C169        C  0.50802038  0.88969082  0.71111508     1.03000
O170        O  0.52243295  0.90327037  0.73333625    -0.77500
O171        O  0.55629086  0.92122560  0.78885399    -0.77600
C172        C  0.57061439  0.92750928  0.76275983     1.02900
Cr173      Cr  0.56347661  0.88650743  0.76264931     1.93700
Cr174      Cr  0.51827677  0.85752695  0.73462242     1.93200
Cr175      Cr  0.52935345  0.89507448  0.78781565     1.39100
O176        O  0.53724125  0.87959362  0.76146433    -1.22700
O177        O  0.67680385  0.56058004  0.43682356    -0.85000
O178        O  0.69566078  0.55421442  0.36875003    -0.82000
C179        C  0.69472799  0.53751399  0.37855217     0.98500
O180        O  0.67767246  0.52117176  0.37895914    -0.82000
O181        O  0.63581407  0.49431990  0.38530224    -0.84700
C182        C  0.63025653  0.49487130  0.42266804     1.03000
O183        O  0.63198478  0.51111566  0.43731612    -0.77500
O184        O  0.64476668  0.55189153  0.44645810    -0.77600
C185        C  0.66247567  0.55769758  0.46112566     1.03000
O186        O  0.65719035  0.57615769  0.38024160    -0.85000
O187        O  0.67167279  0.56467833  0.31320801    -0.82000
C188        C  0.67222599  0.55260328  0.28673448     0.98500
O189        O  0.67124005  0.53609562  0.29871843    -0.82100
O190        O  0.62992595  0.51129656  0.30916264    -0.84700
C191        C  0.61238968  0.50449722  0.32454472     1.03000
O192        O  0.61036194  0.50912376  0.36169256    -0.77500
O193        O  0.62619018  0.55097009  0.36657863    -0.77600
C194        C  0.63877463  0.56989498  0.36921616     1.02900
Cr195      Cr  0.67384344  0.56207741  0.37470171     1.93700
Cr196      Cr  0.65375394  0.51729950  0.34530013     1.93200
Cr197      Cr  0.63004803  0.53126534  0.40078428     1.39100
O198        O  0.65249123  0.53679666  0.37341886    -1.22700
O199        O  0.66838105  0.56538267  0.93131450    -0.85000
O200        O  0.69251394  0.55234897  0.89749715    -0.82000
C201        C  0.69656064  0.53941294  0.88269268     0.98500
O202        O  0.68449586  0.52595326  0.85659197    -0.82000
O203        O  0.64692378  0.49771817  0.89329358    -0.84700
C204        C  0.62878931  0.49001665  0.90611198     1.03000
O205        O  0.61961930  0.50001481  0.90285977    -0.77500
O206        O  0.64303567  0.53510941  0.94981509    -0.77600
C207        C  0.65840640  0.55216755  0.95950961     1.03000
O208        O  0.65774977  0.57216561  0.84525379    -0.85000
O209        O  0.68436602  0.56109184  0.81296002    -0.82000
C210        C  0.67599937  0.54871654  0.78258666     0.98500
O211        O  0.66174980  0.53069638  0.78893357    -0.82100
O212        O  0.62535287  0.50189820  0.82132259    -0.84700
C213        C  0.61291706  0.50851391  0.81741013     1.03000
O214        O  0.61534012  0.52363808  0.83871763    -0.77500
O215        O  0.63334962  0.55772387  0.89105549    -0.77600
C216        C  0.64217324  0.57079456  0.86243867     1.02900
Cr217      Cr  0.67405935  0.56080484  0.87149679     1.93700
Cr218      Cr  0.65465433  0.51569726  0.84242653     1.93200
Cr219      Cr  0.62977162  0.52966586  0.89380840     1.39100
O220        O  0.65304848  0.53540014  0.86920399    -1.22700
O221        O  0.43860857  0.32222160  0.03835958    -0.85000
O222        O  0.44679670  0.30554765  0.10702609    -0.82000
C223        C  0.46090151  0.30261924  0.09394440     0.98500
O224        O  0.47886711  0.31750241  0.08899184    -0.82000
O225        O  0.50989447  0.35791158  0.07223608    -0.84700
C226        C  0.50872378  0.36268948  0.03446434     1.03000
O227        O  0.49238198  0.36128812  0.02068754    -0.77500
O228        O  0.45303882  0.35404448  0.01715805    -0.77600
C229        C  0.44285443  0.33507152  0.00917931     1.03000
O230        O  0.43276678  0.34993481  0.09165524    -0.85000
O231        O  0.44574869  0.33604764  0.16072357    -0.82000
C232        C  0.45784877  0.33330363  0.18399955     0.98500
O233        O  0.47158884  0.33071665  0.16786828    -0.82100
O234        O  0.49949044  0.37072596  0.14754025    -0.84700
C235        C  0.50669570  0.38758907  0.12835068     1.03000
O236        O  0.50154130  0.38828093  0.09063113    -0.77500
O237        O  0.46178404  0.37892739  0.09184772    -0.77600
C238        C  0.44265652  0.36925421  0.09537583     1.02900
Cr239      Cr  0.44293495  0.32980728  0.09907819     1.93700
Cr240      Cr  0.48841491  0.34431692  0.11696677     1.93200
Cr241      Cr  0.47650551  0.36889702  0.05767719     1.39100
O242        O  0.46932297  0.34765079  0.09110333    -1.22700
O243        O  0.43678034  0.33645126  0.53920515    -0.85000
O244        O  0.44536788  0.30874908  0.57603056    -0.82000
C245        C  0.45785634  0.30322665  0.58737003     0.98500
O246        O  0.47408306  0.31538173  0.60701366    -0.82000
O247        O  0.50184607  0.34958726  0.56088206    -0.84700
C248        C  0.51110963  0.36750439  0.54627798     1.03000
O249        O  0.50502785  0.37977268  0.55530780    -0.77500
O250        O  0.46722830  0.36017914  0.51665346    -0.77600
C251        C  0.44906296  0.34613821  0.50920428     1.03000
O252        O  0.43572161  0.35123205  0.62513236    -0.85000
O253        O  0.44432582  0.32382546  0.66044127    -0.82000
C254        C  0.45932045  0.33137760  0.68635848     0.98500
O255        O  0.47752139  0.34161974  0.67402002    -0.82100
O256        O  0.50685098  0.37472346  0.63417069    -0.84700
C257        C  0.50266892  0.38851730  0.64307480     1.03000
O258        O  0.48779909  0.38892036  0.62523268    -0.77500
O259        O  0.45107746  0.37470873  0.57769140    -0.77600
C260        C  0.43771642  0.36657681  0.60575962     1.02900
Cr261      Cr  0.44268788  0.33156182  0.59977600     1.93700
Cr262      Cr  0.48843442  0.34554978  0.61691306     1.93200
Cr263      Cr  0.47703927  0.37392436  0.57102000     1.39100
O264        O  0.46917799  0.35003380  0.59603491    -1.22700
O265        O  0.54503840  0.66660231  0.24400964    -0.85000
O266        O  0.53697636  0.69282881  0.28770355    -0.82000
C267        C  0.52460389  0.69762016  0.30284006     0.98500
O268        O  0.51058038  0.68564618  0.32755295    -0.82000
O269        O  0.47983629  0.65117912  0.28905665    -0.84700
C270        C  0.47081531  0.63419994  0.27057711     1.03000
O271        O  0.47822401  0.62259886  0.27177020    -0.77500
O272        O  0.51320416  0.64441157  0.22587269    -0.77600
C273        C  0.53101084  0.65819862  0.21587882     1.03000
O274        O  0.55139816  0.65138484  0.32597738    -0.85000
O275        O  0.54479721  0.67925486  0.36814155    -0.82000
C276        C  0.53204146  0.67214446  0.39805331     0.98500
O277        O  0.51331409  0.66015340  0.39121027    -0.82100
O278        O  0.48187085  0.62577694  0.35598947    -0.84700
C279        C  0.48625599  0.61159284  0.35547200     1.03000
O280        O  0.49983590  0.61256832  0.33111400    -0.77500
O281        O  0.53332146  0.62914549  0.27749562    -0.77600
C282        C  0.54743578  0.63577864  0.30470484     1.02900
Cr283      Cr  0.54243501  0.67096472  0.30671782     1.93700
Cr284      Cr  0.49799801  0.65546311  0.33831120     1.93200
Cr285      Cr  0.50700346  0.62916380  0.27908798     1.39100
O286        O  0.51592018  0.65208343  0.30843866    -1.22700
O287        O  0.54326317  0.67156924  0.73574110    -0.85000
O288        O  0.53631999  0.69152752  0.80163872    -0.82000
C289        C  0.52042830  0.69219825  0.79102902     0.98500
O290        O  0.50324478  0.67608325  0.78938521    -0.82000
O291        O  0.47459464  0.63578510  0.77705185    -0.84700
C292        C  0.47580917  0.63120253  0.73920767     1.03000
O293        O  0.49162957  0.63136522  0.72651241    -0.77500
O294        O  0.53137353  0.63898933  0.72469481    -0.77600
C295        C  0.54022026  0.65713722  0.71126755     1.03000
O296        O  0.55294795  0.64841412  0.79687437    -0.85000
O297        O  0.54206314  0.66542130  0.86101513    -0.82000
C298        C  0.52980680  0.66688816  0.88550718     0.98500
O299        O  0.51397555  0.66658137  0.87088809    -0.82100
O300        O  0.48710522  0.62588414  0.85509628    -0.84700
C301        C  0.47939465  0.60862136  0.83755565     1.03000
O302        O  0.48407753  0.60708850  0.80025641    -0.77500
O303        O  0.52484402  0.61868798  0.80413933    -0.77600
C304        C  0.54403758  0.62959612  0.80696709     1.02900
Cr305      Cr  0.54170574  0.66784464  0.79850028     1.93700
Cr306      Cr  0.49635215  0.65101948  0.82109813     1.93200
Cr307      Cr  0.50860269  0.62584141  0.76620107     1.39100
O308        O  0.51554618  0.64829277  0.79541526    -1.22700
O309        O  0.30876462  0.44632238  0.15195795    -0.85000
O310        O  0.29064980  0.44786492  0.07839812    -0.82000
C311        C  0.29106656  0.46473272  0.08297044     0.98500
O312        O  0.30777756  0.48133115  0.08072983    -0.82000
O313        O  0.34880199  0.50958664  0.08340053    -0.84700
C314        C  0.35418001  0.51285277  0.12166872     1.03000
O315        O  0.35302556  0.49866119  0.14466876    -0.77500
O316        O  0.34109197  0.45926806  0.17039363    -0.77600
C317        C  0.32239112  0.45159296  0.17991781     1.03000
O318        O  0.33072264  0.42955454  0.10999285    -0.85000
O319        O  0.31659595  0.43546344  0.03498857    -0.82000
C320        C  0.31439011  0.44491447  0.00472067     0.98500
O321        O  0.31425482  0.46133817  0.01093867    -0.82100
O322        O  0.35584871  0.48784170  0.01974590    -0.84700
C323        C  0.37336886  0.49656395  0.03695132     1.03000
O324        O  0.37540460  0.49511012  0.07629974    -0.77500
O325        O  0.36171184  0.45502182  0.09856942    -0.77600
C326        C  0.34950578  0.43612597  0.10311669     1.02900
Cr327      Cr  0.31321475  0.44169763  0.09338107     1.93700
Cr328      Cr  0.33168137  0.48366697  0.05148305     1.93200
Cr329      Cr  0.35607087  0.47621330  0.12012794     1.39100
O330        O  0.33378472  0.46725096  0.08838910    -1.22700
O331        O  0.30661313  0.44474526  0.65141886    -0.85000
O332        O  0.29125340  0.45171489  0.57964715    -0.82000
C333        C  0.29205078  0.46842043  0.58860795     0.98500
O334        O  0.30900985  0.48487067  0.58968494    -0.82000
O335        O  0.35030480  0.51152653  0.60134603    -0.84700
C336        C  0.35379213  0.51168633  0.64049461     1.03000
O337        O  0.35096964  0.49567807  0.65873611    -0.77500
O338        O  0.33808279  0.45502762  0.67237277    -0.77600
C339        C  0.31925075  0.44748811  0.68019133     1.03000
O340        O  0.32905186  0.42989325  0.60418923    -0.85000
O341        O  0.31711669  0.44095715  0.53231003    -0.82000
C342        C  0.31617215  0.45238314  0.50473462     0.98500
O343        O  0.31727106  0.46907317  0.51481605    -0.82100
O344        O  0.35872074  0.49331792  0.53168141    -0.84700
C345        C  0.37556966  0.50041920  0.55132552     1.03000
O346        O  0.37596817  0.49687623  0.59027988    -0.77500
O347        O  0.36062804  0.45548979  0.60006553    -0.77600
C348        C  0.34803516  0.43654189  0.59982929     1.02900
Cr349      Cr  0.31259803  0.44370814  0.59195865     1.93700
Cr350      Cr  0.33369780  0.48817887  0.56172740     1.93200
Cr351      Cr  0.35478579  0.47522766  0.62775936     1.39100
O352        O  0.33377457  0.46904006  0.59372376    -1.22700
O353        O  0.10380511  0.42536252  0.07386648    -0.85000
O354        O  0.12640855  0.42858043  0.14476693    -0.82000
C355        C  0.14378570  0.44367000  0.13570454     0.98500
O356        O  0.14645404  0.46152773  0.13512245    -0.82000
O357        O  0.13781446  0.49297281  0.12958243    -0.84700
C358        C  0.13387900  0.49480422  0.09162841     1.03000
O359        O  0.11890226  0.48025183  0.07277637    -0.77500
O360        O  0.08745917  0.44141517  0.05583123    -0.77600
C361        C  0.09618741  0.43150185  0.04579750     1.03000
O362        O  0.06846720  0.41516358  0.12451097    -0.85000
O363        O  0.09251843  0.42315301  0.19696316    -0.82000
C364        C  0.10670904  0.43314945  0.22352170     0.98500
O365        O  0.12356165  0.44798658  0.21157034    -0.82100
O366        O  0.11183145  0.47700691  0.20006805    -0.84700
C367        C  0.10282202  0.48552296  0.18314600     1.03000
O368        O  0.09767834  0.48274338  0.14459813    -0.77500
O369        O  0.06732476  0.44329595  0.13131378    -0.77600
C370        C  0.05835066  0.42408171  0.13027920     1.02900
Cr371      Cr  0.09837141  0.42504519  0.13516906     1.93700
Cr372      Cr  0.12824007  0.46845453  0.16650334     1.93200
Cr373      Cr  0.09382407  0.46105793  0.10364633     1.39100
O374        O  0.10676726  0.45156921  0.13500076    -1.22700
O375        O  0.09181143  0.42561283  0.57663537    -0.85000
O376        O  0.12835238  0.43719447  0.61597199    -0.82000
C377        C  0.14589472  0.44955161  0.63041709     0.98500
O378        O  0.14900694  0.46515065  0.65113151    -0.82000
O379        O  0.14714781  0.49291251  0.59593935    -0.84700
C380        C  0.13934204  0.50048433  0.57174843     1.03000
O381        O  0.12034550  0.49407039  0.57233352    -0.77500
O382        O  0.10094271  0.45467209  0.54408369    -0.77600
C383        C  0.09525557  0.43592798  0.54284572     1.03000
O384        O  0.07607103  0.43001918  0.65842572    -0.85000
O385        O  0.11169390  0.43863988  0.69758327    -0.82000
C386        C  0.11606094  0.45363316  0.72178045     0.98500
O387        O  0.12284685  0.47131043  0.70709857    -0.82100
O388        O  0.12381209  0.50048250  0.65551508    -0.84700
C389        C  0.10577650  0.49754049  0.65613949     1.03000
O390        O  0.09119361  0.48188038  0.63909504    -0.77500
O391        O  0.06910517  0.44311772  0.60382454    -0.77600
C392        C  0.06341263  0.43248286  0.63696855     1.02900
Cr393      Cr  0.10262570  0.43489280  0.63625088     1.93700
Cr394      Cr  0.13391722  0.48072576  0.65047424     1.93200
Cr395      Cr  0.09656743  0.46784569  0.59263873     1.39100
O396        O  0.11122210  0.46111075  0.62615727    -1.22700
O397        O  0.13970032  0.67711431  0.47177411    -0.85000
O398        O  0.16393112  0.69045018  0.40240398    -0.82000
C399        C  0.17929926  0.68878010  0.41288808     0.98500
O400        O  0.17766391  0.67139377  0.41534927    -0.82000
O401        O  0.16023089  0.62993458  0.43051100    -0.84700
C402        C  0.15622148  0.62711203  0.46943865     1.03000
O403        O  0.14368344  0.63145535  0.48527380    -0.77500
O404        O  0.11729681  0.64637393  0.49339388    -0.77600
C405        C  0.12937111  0.66515416  0.50089590     1.03000
O406        O  0.10276422  0.65533858  0.41986705    -0.85000
O407        O  0.12794033  0.66591249  0.35012525    -0.82000
C408        C  0.14034683  0.66544101  0.32460110     0.98500
O409        O  0.15463919  0.66264991  0.33762789    -0.82100
O410        O  0.13467491  0.62171641  0.35778490    -0.84700
C411        C  0.12361495  0.60542005  0.37786426     1.03000
O412        O  0.11968509  0.60600907  0.41632266    -0.77500
O413        O  0.09574824  0.62348042  0.41930656    -0.77600
C414        C  0.08993971  0.63633589  0.41604935     1.02900
Cr415      Cr  0.13372761  0.67048671  0.41135962     1.93700
Cr416      Cr  0.15539166  0.64672147  0.38759710     1.93200
Cr417      Cr  0.12033667  0.62848921  0.45089674     1.39100
O418        O  0.13645418  0.64856638  0.41652495    -1.22700
O419        O  0.13478870  0.66912431  0.97889407    -0.85000
O420        O  0.15940130  0.69132937  0.91194126    -0.82000
C421        C  0.17482465  0.68894423  0.91604476     0.98500
O422        O  0.17293731  0.67164240  0.91008022    -0.82000
O423        O  0.15553643  0.62975316  0.90177069    -0.84700
C424        C  0.15063153  0.62208937  0.93828266     1.03000
O425        O  0.13774905  0.62410105  0.95941275    -0.77500
O426        O  0.11112596  0.63674150  0.98298648    -0.77600
C427        C  0.12363066  0.65343396  0.00068310     1.03000
O428        O  0.09831480  0.65392043  0.92564544    -0.85000
O429        O  0.12303343  0.67204795  0.85762906    -0.82000
C430        C  0.13510178  0.67402615  0.82854145     0.98500
O431        O  0.15072421  0.67250782  0.83653876    -0.82100
O432        O  0.13114430  0.63065246  0.83311948    -0.84700
C433        C  0.11967515  0.61232330  0.84411666     1.03000
O434        O  0.11527879  0.60781940  0.88243166    -0.77500
O435        O  0.09140346  0.62394827  0.90189300    -0.77600
C436        C  0.08574037  0.63654472  0.91002381     1.02900
Cr437      Cr  0.12915424  0.67022743  0.91783438     1.93700
Cr438      Cr  0.15128262  0.65110403  0.87299280     1.93200
Cr439      Cr  0.11509984  0.62495925  0.93011110     1.39100
O440        O  0.13191958  0.64877824  0.90709595    -1.22700
O441        O  0.88585560  0.58287416  0.35958813    -0.85000
O442        O  0.86200728  0.57721433  0.42797471    -0.82000
C443        C  0.84504820  0.56168536  0.41746009     0.98500
O444        O  0.84366219  0.54439371  0.41421080    -0.82000
O445        O  0.85519336  0.51459013  0.40764169    -0.84700
C446        C  0.86010035  0.51483663  0.36952464     1.03000
O447        O  0.87524941  0.53040071  0.35457206    -0.77500
O448        O  0.90501359  0.56981040  0.34233027    -0.77600
C449        C  0.89494948  0.57850674  0.33219609     1.03000
O450        O  0.92138225  0.59482029  0.41210379    -0.85000
O451        O  0.89624681  0.58410339  0.48171001    -0.82000
C452        C  0.88196352  0.57310718  0.50651797     0.98500
O453        O  0.86563199  0.55785574  0.49272875    -0.82100
O454        O  0.87984389  0.53156563  0.48220988    -0.84700
C455        C  0.89028879  0.52427796  0.46798816     1.03000
O456        O  0.89586616  0.52704009  0.42966130    -0.77500
O457        O  0.92494330  0.56800707  0.41918108    -0.77600
C458        C  0.93274231  0.58714359  0.41759731     1.02900
Cr459      Cr  0.89095899  0.58287022  0.42036314     1.93700
Cr460      Cr  0.86268936  0.53847185  0.44678572     1.93200
Cr461      Cr  0.89913592  0.54935484  0.38888686     1.39100
O462        O  0.88433770  0.55686886  0.41862212    -1.22700
O463        O  0.89873169  0.58462159  0.85570833    -0.85000
O464        O  0.86249554  0.57463205  0.89388672    -0.82000
C465        C  0.84575298  0.56296138  0.91183806     0.98500
O466        O  0.84495385  0.55101192  0.94061735    -0.82000
O467        O  0.84773987  0.52052848  0.89899194    -0.84700
C468        C  0.85529073  0.51084741  0.88204542     1.03000
O469        O  0.87433862  0.51762324  0.88428628    -0.77500
O470        O  0.88925072  0.55297744  0.83781250    -0.77600
C471        C  0.89327019  0.57080117  0.82803098     1.03000
O472        O  0.91826106  0.59100148  0.93756211    -0.85000
O473        O  0.88309326  0.58355632  0.97599493    -0.82000
C474        C  0.88075299  0.57188657  0.00672159     0.98500
O475        O  0.87430577  0.55314286  0.00117124    -0.82100
O476        O  0.87417699  0.52071809  0.96581814    -0.84700
C477        C  0.89275416  0.52531790  0.96897916     1.03000
O478        O  0.90611126  0.53875588  0.94522714    -0.77500
O479        O  0.92400106  0.57282561  0.89235941    -0.77600
C480        C  0.93061935  0.58762555  0.91786424     1.02900
Cr481      Cr  0.89004995  0.58143048  0.91609618     1.93700
Cr482      Cr  0.86186778  0.53775006  0.94922055     1.93200
Cr483      Cr  0.89741824  0.54633796  0.89197408     1.39100
O484        O  0.88316119  0.55530616  0.91933500    -1.22700
O485        O  0.87135999  0.34312464  0.25653187    -0.85000
O486        O  0.83455713  0.32189974  0.21433232    -0.82000
C487        C  0.81867541  0.31983702  0.19617012     0.98500
O488        O  0.81967789  0.33334413  0.17107486    -0.82000
O489        O  0.82755553  0.36790515  0.21602775    -0.84700
C490        C  0.83741768  0.38447954  0.23609177     1.03000
O491        O  0.85670268  0.39384580  0.23684839    -0.77500
O492        O  0.86514617  0.36685306  0.27931613    -0.77600
C493        C  0.86759357  0.35178684  0.28647369     1.03000
O494        O  0.89176445  0.35767667  0.17527512    -0.85000
O495        O  0.85473446  0.33340794  0.13423865    -0.82000
C496        C  0.85348853  0.34398485  0.10461521     0.98500
O497        O  0.85107236  0.35894058  0.11248812    -0.82100
O498        O  0.85726349  0.39325823  0.15367139    -0.84700
C499        C  0.87643065  0.40569504  0.15578867     1.03000
O500        O  0.88783785  0.40173097  0.17841746    -0.77500
O501        O  0.89976240  0.37901850  0.22767129    -0.77600
C502        C  0.90514992  0.37184195  0.19802112     1.02900
Cr503      Cr  0.86292190  0.34072899  0.19512755     1.93700
Cr504      Cr  0.84033092  0.36318444  0.16567193     1.93200
Cr505      Cr  0.87607135  0.38361847  0.22812542     1.39100
O506        O  0.85961677  0.36235668  0.19614574    -1.22700
O507        O  0.86245506  0.34044467  0.75754666    -0.85000
O508        O  0.83199021  0.32024032  0.69809306    -0.82000
C509        C  0.81804912  0.32303544  0.71269220     0.98500
O510        O  0.82049932  0.34077972  0.71322705    -0.82000
O511        O  0.83883258  0.38301588  0.70996728    -0.84700
C512        C  0.84784235  0.38942628  0.74519164     1.03000
O513        O  0.86323330  0.38804090  0.75462084    -0.77500
O514        O  0.88799135  0.37211166  0.76040243    -0.77600
C515        C  0.87571105  0.35551906  0.77868036     1.03000
O516        O  0.89332356  0.35434046  0.69219268    -0.85000
O517        O  0.86210494  0.33888426  0.63228659    -0.82000
C518        C  0.84704739  0.33727714  0.61129098     0.98500
O519        O  0.83379754  0.34029991  0.62864903    -0.82100
O520        O  0.85449860  0.38208947  0.62814086    -0.84700
C521        C  0.86901601  0.39990068  0.63571702     1.03000
O522        O  0.87827118  0.40422218  0.67113377    -0.77500
O523        O  0.90150674  0.38562498  0.67553374    -0.77600
C524        C  0.90615343  0.37186872  0.67819175     1.02900
Cr525      Cr  0.86243018  0.34009112  0.69489142     1.93700
Cr526      Cr  0.83858729  0.36163177  0.67175355     1.93200
Cr527      Cr  0.88117681  0.38578000  0.71366491     1.39100
O528        O  0.86081640  0.36263953  0.69313910    -1.22700
C529        C  0.86095136  0.34263260  0.89521309     0.19100
C530        C  0.85175827  0.32543462  0.92174977    -0.19000
C531        C  0.85045312  0.32775023  0.96539181    -0.11300
C532        C  0.85795911  0.34735308  0.98295214     0.21300
C533        C  0.86664661  0.36436825  0.95614279    -0.20600
C534        C  0.86816573  0.36209432  0.91297963    -0.11500
C535        C  0.85605492  0.35099708  0.02829472    -0.15600
C536        C  0.85465130  0.33857259  0.06020714    -0.29500
C537        C  0.86176909  0.34018265  0.84879571    -0.03800
C538        C  0.87682366  0.35470459  0.82512009    -0.40300
H539        H  0.84562819  0.31023022  0.90869580     0.12500
H540        H  0.84312678  0.31422871  0.98496277     0.12100
H541        H  0.87220790  0.37959008  0.96865704     0.11500
H542        H  0.87450513  0.37563446  0.89342860     0.11800
H543        H  0.85678051  0.36533644  0.03590964     0.14500
H544        H  0.85498167  0.32465651  0.05398758     0.13300
H545        H  0.84930081  0.32672814  0.83374126     0.11000
H546        H  0.88958972  0.36777959  0.84046083     0.13000
C547        C  0.85897370  0.33816653  0.49433911     0.19100
C548        C  0.87129986  0.33431242  0.46752039    -0.19000
C549        C  0.87159088  0.33797933  0.42404214    -0.11300
C550        C  0.85971480  0.34586316  0.40686986     0.21300
C551        C  0.84746207  0.34968483  0.43378424    -0.20600
C552        C  0.84706681  0.34591507  0.47686638    -0.11500
C553        C  0.86063713  0.35184472  0.36196263    -0.15600
C554        C  0.86685316  0.34462532  0.33021060    -0.29500
C555        C  0.86020795  0.33616433  0.54079250    -0.03800
C556        C  0.84454137  0.33259694  0.56590472    -0.40300
H557        H  0.88093978  0.32876502  0.48033355     0.12500
H558        H  0.88164626  0.33534346  0.40444417     0.12100
H559        H  0.83842094  0.35604355  0.42152995     0.11500
H560        H  0.83805751  0.34996726  0.49655822     0.11800
H561        H  0.85544194  0.36254383  0.35459191     0.14500
H562        H  0.87112259  0.33312470  0.33598440     0.13300
H563        H  0.87476006  0.33943481  0.55462422     0.11000
H564        H  0.82985918  0.32877454  0.55196305     0.13000
C565        C  0.87872335  0.45292670  0.10419046     0.19100
C566        C  0.89575523  0.46317358  0.07760551    -0.19000
C567        C  0.89888056  0.48045213  0.05468425    -0.11300
C568        C  0.88505808  0.48769553  0.05841722     0.21300
C569        C  0.86883233  0.47799051  0.08681249    -0.20600
C570        C  0.86564005  0.46081085  0.10911701    -0.11500
C571        C  0.88516090  0.50373800  0.03108859    -0.15600
C572        C  0.89804365  0.51368120  0.99917172    -0.29500
C573        C  0.87254052  0.43299086  0.12439906    -0.03800
C574        C  0.88498862  0.42563871  0.13408157    -0.40300
H575        H  0.90602471  0.45733253  0.07286825     0.12500
H576        H  0.91158507  0.48750593  0.03317207     0.12100
H577        H  0.85794440  0.48317917  0.09050868     0.11500
H578        H  0.85245280  0.45326460  0.12947589     0.11800
H579        H  0.87251413  0.50648717  0.03573125     0.14500
H580        H  0.91150652  0.51245138  0.99373652     0.13300
H581        H  0.85653465  0.42401996  0.13330343     0.11000
H582        H  0.90134541  0.43468067  0.12873180     0.13000
C583        C  0.83662436  0.45629006  0.84438735     0.19100
C584        C  0.83650003  0.43943156  0.86312176    -0.19000
C585        C  0.83185888  0.42218445  0.83919874    -0.11300
C586        C  0.82795530  0.42180404  0.79560616     0.21300
C587        C  0.82618198  0.43784645  0.77777485    -0.20600
C588        C  0.83053223  0.45503224  0.80195656    -0.11500
C589        C  0.82875596  0.40663853  0.76728076    -0.15600
C590        C  0.84167353  0.39975659  0.77585744    -0.29500
C591        C  0.84642688  0.47587250  0.86769676    -0.03800
C592        C  0.84211615  0.49089849  0.86176711    -0.40300
H593        H  0.84098543  0.44001530  0.89588558     0.12500
H594        H  0.83248360  0.40968472  0.85442240     0.12100
H595        H  0.82304500  0.43783270  0.74437047     0.11500
H596        H  0.83071405  0.46790886  0.78656193     0.11800
H597        H  0.82140580  0.40375463  0.73644669     0.14500
H598        H  0.85026490  0.40398892  0.80533873     0.13300
H599        H  0.85839179  0.47829186  0.89028361     0.11000
H600        H  0.82917088  0.48854880  0.84242873     0.13000
C601        C  0.87138730  0.56688021  0.62470530     0.19100
C602        C  0.85769950  0.54932460  0.64705446    -0.19000
C603        C  0.86040554  0.54786721  0.69010131    -0.11300
C604        C  0.87671262  0.56402438  0.71186878     0.21300
C605        C  0.89001093  0.58204775  0.68991786    -0.20600
C606        C  0.88731566  0.58348414  0.64663746    -0.11500
C607        C  0.87980219  0.56073536  0.75664660    -0.15600
C608        C  0.89158938  0.57569682  0.78390293    -0.29500
C609        C  0.86892024  0.56655310  0.57842521    -0.03800
C610        C  0.88433387  0.57775512  0.55187490    -0.40300
H611        H  0.84526142  0.53636164  0.63087978     0.12500
H612        H  0.84992623  0.53386004  0.70630910     0.12100
H613        H  0.90288301  0.59478934  0.70546638     0.11500
H614        H  0.89785417  0.59746349  0.63055879     0.11800
H615        H  0.87145435  0.54507063  0.76808139     0.14500
H616        H  0.89901951  0.59165799  0.77481570     0.13300
H617        H  0.85425963  0.55489226  0.56553016     0.11000
H618        H  0.89935247  0.58913705  0.56351687     0.13000
C619        C  0.89713301  0.58016009  0.21212217     0.19100
C620        C  0.91187242  0.58892258  0.18042522    -0.19000
C621        C  0.90584585  0.58623645  0.13791594    -0.11300
C622        C  0.88501847  0.57422832  0.12684003     0.21300
C623        C  0.87035228  0.56573470  0.15853585    -0.20600
C624        C  0.87629177  0.56885197  0.20080186    -0.11500
C625        C  0.87837791  0.56777040  0.08302698    -0.15600
C626        C  0.88606820  0.58025800  0.04975347    -0.29500
C627        C  0.90346140  0.58093761  0.25663637    -0.03800
C628        C  0.89273678  0.58283491  0.28787455    -0.40300
H629        H  0.92801577  0.59745174  0.18857210     0.12500
H630        H  0.91745863  0.59251110  0.11381443     0.12100
H631        H  0.85427639  0.55614812  0.15049824     0.11500
H632        H  0.86463417  0.56146946  0.22456709     0.11800
H633        H  0.86654881  0.55190599  0.07808915     0.14500
H634        H  0.89678504  0.59647650  0.05419205     0.13300
H635        H  0.91632935  0.57877260  0.26377149     0.11000
H636        H  0.88074387  0.58629015  0.28033559     0.13000
C637        C  0.89324162  0.45132855  0.57439679     0.19100
C638        C  0.90210569  0.47184954  0.58701619    -0.19000
C639        C  0.90472655  0.48701643  0.55808651    -0.11300
C640        C  0.89865360  0.48201139  0.51560811     0.21300
C641        C  0.89109258  0.46176533  0.50238294    -0.20600
C642        C  0.88833173  0.44656418  0.53136721    -0.11500
C643        C  0.89887790  0.49719705  0.48505942    -0.15600
C644        C  0.89488249  0.51181521  0.49731438    -0.29500
C645        C  0.88912769  0.43539281  0.60697862    -0.03800
C646        C  0.87440229  0.41562781  0.60252238    -0.40300
H647        H  0.90645855  0.47608010  0.61968580     0.12500
H648        H  0.91127461  0.50259581  0.56918269     0.12100
H649        H  0.88660461  0.45753679  0.46976177     0.11500
H650        H  0.88226093  0.43112381  0.51987177     0.11800
H651        H  0.89962441  0.49468196  0.45157857     0.14500
H652        H  0.89229517  0.51310226  0.53048538     0.13300
H653        H  0.89755374  0.44034004  0.63665470     0.11000
H654        H  0.86517404  0.41066718  0.57389360     0.13000
C655        C  0.83257481  0.45942238  0.32795015     0.19100
C656        C  0.82930125  0.44104449  0.34613739    -0.19000
C657        C  0.82793837  0.42522835  0.32083777    -0.11300
C658        C  0.82991234  0.42760787  0.27685764     0.21300
C659        C  0.83154931  0.44524102  0.25853369    -0.20600
C660        C  0.83244465  0.46078785  0.28362191    -0.11500
C661        C  0.83436537  0.41424914  0.25041739    -0.15600
C662        C  0.82715357  0.39418857  0.25707134    -0.29500
C663        C  0.83814847  0.47742878  0.35576084    -0.03800
C664        C  0.84940642  0.49679482  0.34175130    -0.40300
H665        H  0.82911007  0.43942405  0.38010882     0.12500
H666        H  0.82695655  0.41190855  0.33590454     0.12100
H667        H  0.83302587  0.44738388  0.22467933     0.11500
H668        H  0.83384072  0.47413468  0.26796705     0.11800
H669        H  0.84539772  0.42179183  0.22534194     0.14500
H670        H  0.81506401  0.38557578  0.27952235     0.13300
H671        H  0.83541560  0.47481346  0.38939462     0.11000
H672        H  0.85362869  0.49964808  0.30883922     0.13000
C673        C  0.98910668  0.61207789  0.90244767     0.19100
C674        C  0.00075890  0.61036008  0.87027161    -0.19000
C675        C  0.02202092  0.61981167  0.87396734    -0.11300
C676        C  0.03222309  0.63114480  0.91026439     0.21300
C677        C  0.02076412  0.63373807  0.94159221    -0.20600
C678        C  0.99939171  0.62420034  0.93797051    -0.11500
C679        C  0.05461193  0.63969013  0.91670983    -0.15600
C680        C  0.06406634  0.63002497  0.90185453    -0.29500
C681        C  0.96638521  0.59999285  0.89812908    -0.03800
C682        C  0.95296123  0.60124284  0.92382360    -0.40300
H683        H  0.99334229  0.60134353  0.84233084     0.12500
H684        H  0.03040244  0.61807528  0.84843106     0.12100
H685        H  0.02829106  0.64253162  0.96969436     0.11500
H686        H  0.99111637  0.62593236  0.96363235     0.11800
H687        H  0.06304234  0.65307642  0.93669641     0.14500
H688        H  0.05521760  0.61571805  0.88481053     0.13300
H689        H  0.96033049  0.58916792  0.87209320     0.11000
H690        H  0.95815916  0.61233016  0.94920856     0.13000
C691        C  0.99112726  0.60691289  0.40862764     0.19100
C692        C  0.00177090  0.59893152  0.38746134    -0.19000
C693        C  0.02316822  0.60942201  0.38688025    -0.11300
C694        C  0.03474561  0.62812361  0.40848744     0.21300
C695        C  0.02414354  0.63666097  0.42804731    -0.20600
C696        C  0.00257485  0.62618927  0.42824686    -0.11500
C697        C  0.05767803  0.63852825  0.41213851    -0.15600
C698        C  0.06768838  0.62803155  0.40902202    -0.29500
C699        C  0.96827631  0.59404138  0.41048275    -0.03800
C700        C  0.95536563  0.60084180  0.41996605    -0.40300
H701        H  0.99345958  0.58433244  0.37139317     0.12500
H702        H  0.03047849  0.60265447  0.36946675     0.12100
H703        H  0.03255875  0.65115442  0.44444023     0.11500
H704        H  0.99503798  0.63292687  0.44497563     0.11800
H705        H  0.06625213  0.65464511  0.42044513     0.14500
H706        H  0.05893656  0.61165064  0.40385974     0.13300
H707        H  0.96162834  0.57806282  0.40161948     0.11000
H708        H  0.96127822  0.61694074  0.42621737     0.13000
C709        C  0.13626151  0.67652811  0.70787702     0.19100
C710        C  0.15132825  0.68631400  0.67719724    -0.19000
C711        C  0.14639759  0.68239086  0.63440360    -0.11300
C712        C  0.12622970  0.66831604  0.62140295     0.21300
C713        C  0.11108926  0.65869615  0.65213429    -0.20600
C714        C  0.11599039  0.66282786  0.69498183    -0.11500
C715        C  0.12110287  0.66168534  0.57674035    -0.15600
C716        C  0.13205458  0.67330123  0.54409966    -0.29500
C717        C  0.14261875  0.67879202  0.75278479    -0.03800
C718        C  0.13025084  0.67685693  0.78474440    -0.40300
H719        H  0.16711222  0.69659903  0.68645948     0.12500
H720        H  0.15866457  0.68960474  0.61189410     0.12100
H721        H  0.09553625  0.64752501  0.64300129     0.11500
H722        H  0.10413773  0.65449752  0.71792491     0.11800
H723        H  0.10832012  0.64639021  0.57070650     0.14500
H724        H  0.14410620  0.68900862  0.54927973     0.13300
H725        H  0.15779490  0.68120586  0.75970579     0.11000
H726        H  0.11544882  0.67543476  0.77832629     0.13000
C727        C  0.14032256  0.66810982  0.11611110     0.19100
C728        C  0.14304357  0.68382257  0.14340698    -0.19000
C729        C  0.14469769  0.68190502  0.18702395    -0.11300
C730        C  0.14414218  0.66440533  0.20385499     0.21300
C731        C  0.14222690  0.64908303  0.17635787    -0.20600
C732        C  0.14017496  0.65080985  0.13296628    -0.11500
C733        C  0.14635995  0.66205494  0.24970406    -0.15600
C734        C  0.13843186  0.66869117  0.27924026    -0.29500
C735        C  0.13798460  0.66996092  0.07006908    -0.03800
C736        C  0.12495175  0.65359323  0.04703042    -0.40300
H737        H  0.14354716  0.69742478  0.13101157     0.12500
H738        H  0.14675578  0.69423024  0.20744913     0.12100
H739        H  0.14209956  0.63562470  0.18855507     0.11500
H740        H  0.13874590  0.63872404  0.11254848     0.11800
H741        H  0.15368936  0.65346521  0.25938885     0.14500
H742        H  0.12949592  0.67568688  0.26993159     0.13300
H743        H  0.14689589  0.68481488  0.05518361     0.11000
H744        H  0.11531262  0.63911416  0.06280522     0.13000
C745        C  0.00520853  0.41174561  0.63877500     0.19100
C746        C  0.98865318  0.39710079  0.61462946    -0.19000
C747        C  0.96848027  0.39109943  0.62546584    -0.11300
C748        C  0.96451593  0.40009028  0.66004980     0.21300
C749        C  0.98110002  0.41487396  0.68401719    -0.20600
C750        C  0.00124991  0.42043539  0.67390523    -0.11500
C751        C  0.94337249  0.39523718  0.67015534    -0.15600
C752        C  0.92689560  0.37631491  0.66645987    -0.29500
C753        C  0.02645845  0.41916835  0.62450296    -0.03800
C754        C  0.04199220  0.42324971  0.65127446    -0.40300
H755        H  0.99136468  0.39041868  0.58709551     0.12500
H756        H  0.95604605  0.37999353  0.60586830     0.12100
H757        H  0.97844531  0.42218661  0.71051957     0.11500
H758        H  0.01375538  0.43210958  0.69250563     0.11800
H759        H  0.94146318  0.40742524  0.68317360     0.14500
H760        H  0.92886672  0.36360743  0.65735568     0.13300
H761        H  0.02931492  0.42103508  0.59081554     0.11000
H762        H  0.03893799  0.41980725  0.68459422     0.13000
C763        C  0.17553534  0.59066023  0.50033130     0.19100
C764        C  0.17527639  0.57500524  0.47621981    -0.19000
C765        C  0.17366518  0.55764502  0.49569597    -0.11300
C766        C  0.17249128  0.55572974  0.53983443     0.21300
C767        C  0.17484766  0.57227276  0.56405626    -0.20600
C768        C  0.17627021  0.58956134  0.54456804    -0.11500
C769        C  0.16644434  0.53599670  0.56123641    -0.15600
C770        C  0.15205809  0.51808195  0.54450406    -0.29500
C771        C  0.17325613  0.60677713  0.47815306    -0.03800
C772        C  0.16425467  0.61645407  0.49560818    -0.40300
H773        H  0.17510066  0.57563355  0.44206911     0.12500
H774        H  0.17250096  0.54539707  0.47620538     0.12100
H775        H  0.17429205  0.57128660  0.59815475     0.11500
H776        H  0.17727916  0.60167658  0.56424566     0.11800
H777        H  0.17051180  0.53645247  0.59438482     0.14500
H778        H  0.14595757  0.51787711  0.51322837     0.13300
H779        H  0.17630467  0.60850499  0.44451641     0.11000
H780        H  0.15989941  0.61403178  0.52851844     0.13000
C781        C  0.11718102  0.58145175  0.74717448     0.19100
C782        C  0.09994515  0.56166156  0.74967353    -0.19000
C783        C  0.09953758  0.54536012  0.72814071    -0.11300
C784        C  0.11635492  0.54866469  0.70373676     0.21300
C785        C  0.13305396  0.56858936  0.69984165    -0.20600
C786        C  0.13337222  0.58484018  0.72097829    -0.11500
C787        C  0.11803959  0.53180161  0.68453475    -0.15600
C788        C  0.10214216  0.51314452  0.67525970    -0.29500
C789        C  0.11971468  0.59856950  0.77391658    -0.03800
C790        C  0.11245012  0.59555811  0.81331182    -0.40300
H791        H  0.08699784  0.55866232  0.76892670     0.12500
H792        H  0.08648484  0.53017979  0.73217445     0.12100
H793        H  0.14617434  0.57152784  0.68115974     0.11500
H794        H  0.14677678  0.59994280  0.71848450     0.11800
H795        H  0.13341627  0.53520271  0.67678265     0.14500
H796        H  0.08648798  0.50953736  0.68006627     0.13300
H797        H  0.13035281  0.61404747  0.76349252     0.11000
H798        H  0.10290176  0.58013248  0.82515052     0.13000
C799        C  0.00153802  0.40899936  0.14466906     0.19100
C800        C  0.99213180  0.41860705  0.16455307    -0.19000
C801        C  0.97086863  0.40868864  0.16829970    -0.11300
C802        C  0.95838737  0.38879262  0.15223066     0.21300
C803        C  0.96765276  0.37946971  0.13072546    -0.20600
C804        C  0.98903088  0.38938530  0.12716285    -0.11500
C805        C  0.93575792  0.37770786  0.15750037    -0.15600
C806        C  0.92729595  0.38058606  0.19188021    -0.29500
C807        C  0.02429439  0.42045280  0.14140166    -0.03800
C808        C  0.03576577  0.41175267  0.13429698    -0.40300
H809        H  0.00129974  0.43386620  0.17747957     0.12500
H810        H  0.96425296  0.41676126  0.18347046     0.12100
H811        H  0.95835030  0.36434617  0.11728173     0.11500
H812        H  0.99560604  0.38174448  0.11023300     0.11800
H813        H  0.92604862  0.36692741  0.13335465     0.14500
H814        H  0.93716110  0.39073766  0.21666766     0.13300
H815        H  0.03202118  0.43690694  0.14612134     0.11000
H816        H  0.02860330  0.39528271  0.13132608     0.13000
C817        C  0.15243693  0.58008800  0.00110426     0.19100
C818        C  0.15413317  0.57566898  0.04335674    -0.19000
C819        C  0.15115344  0.55652890  0.05477528    -0.11300
C820        C  0.14609134  0.54127938  0.02404503     0.21300
C821        C  0.14468015  0.54581893  0.98167842    -0.20600
C822        C  0.14798036  0.56509163  0.97018414    -0.11500
C823        C  0.13933731  0.51986310  0.03611135    -0.15600
C824        C  0.14564367  0.51507921  0.07186314    -0.29500
C825        C  0.15210327  0.59900176  0.99092246    -0.03800
C826        C  0.15781658  0.60833789  0.95335608    -0.40300
H827        H  0.15704647  0.58681259  0.06775690     0.12500
H828        H  0.15159170  0.55337396  0.08795186     0.12100
H829        H  0.14032902  0.53419350  0.95761547     0.11500
H830        H  0.14581368  0.56777147  0.93748242     0.11800
H831        H  0.12743141  0.50775008  0.01694062     0.14500
H832        H  0.15802103  0.52705403  0.09036945     0.13300
H833        H  0.14527208  0.60432962  0.01390602     0.11000
H834        H  0.16557941  0.60377844  0.93104995     0.13000
C835        C  0.11499675  0.56286799  0.29990411     0.19100
C836        C  0.11130782  0.55948708  0.25646169    -0.19000
C837        C  0.10829011  0.54139308  0.23814723    -0.11300
C838        C  0.10909795  0.52633168  0.26301048     0.21300
C839        C  0.11276068  0.52972108  0.30645564    -0.20600
C840        C  0.11561389  0.54774010  0.32480800    -0.11500
C841        C  0.10841943  0.50808941  0.24402067    -0.15600
C842        C  0.09940899  0.50027230  0.20662964    -0.29500
C843        C  0.11982853  0.58293244  0.31778490    -0.03800
C844        C  0.11627752  0.58524707  0.35822714    -0.40300
H845        H  0.11112210  0.57104596  0.23652173     0.12500
H846        H  0.10627138  0.53975600  0.20430119     0.12100
H847        H  0.11386475  0.51857606  0.32612586     0.11500
H848        H  0.11913815  0.55009710  0.35817955     0.11800
H849        H  0.11649256  0.50156780  0.26040540     0.14500
H850        H  0.09071896  0.50618962  0.19062684     0.13300
H851        H  0.12669385  0.59618113  0.29715274     0.11000
H852        H  0.10839105  0.57194374  0.37842398     0.13000
C853        C  0.10038140  0.43310857  0.83543183     0.19100
C854        C  0.10215665  0.41925778  0.86227402    -0.19000
C855        C  0.09926475  0.41950823  0.90596123    -0.11300
C856        C  0.09422227  0.43348018  0.92348874     0.21300
C857        C  0.09159709  0.44664986  0.89620919    -0.20600
C858        C  0.09460167  0.44648114  0.85289518    -0.11500
C859        C  0.09135502  0.43503241  0.96957130    -0.15600
C860        C  0.09765959  0.42720736  0.00070652    -0.29500
C861        C  0.10448731  0.43358470  0.78934973    -0.03800
C862        C  0.11327398  0.45137273  0.76799758    -0.40300
H863        H  0.10621331  0.40853412  0.84954165     0.12500
H864        H  0.10090063  0.40870761  0.92560655     0.12100
H865        H  0.08739577  0.45734444  0.90851905     0.11500
H866        H  0.09228131  0.45682503  0.83305065     0.11800
H867        H  0.08459403  0.44418463  0.97839110     0.14500
H868        H  0.10516890  0.41862591  0.99337013     0.13300
H869        H  0.10048528  0.41941512  0.77317761     0.11000
H870        H  0.11816160  0.46547100  0.78531313     0.13000
C871        C  0.08516372  0.41994904  0.33577444     0.19100
C872        C  0.06985370  0.42275914  0.35351852    -0.19000
C873        C  0.06978544  0.42605376  0.39684674    -0.11300
C874        C  0.08462773  0.42596862  0.42366604     0.21300
C875        C  0.09930514  0.42196653  0.40645520    -0.20600
C876        C  0.09962602  0.41906069  0.36283959    -0.11500
C877        C  0.08600861  0.43288325  0.46791663    -0.15600
C878        C  0.09226455  0.42612395  0.50103401    -0.29500
C879        C  0.08641047  0.41954598  0.28891767    -0.03800
C880        C  0.10447602  0.42822405  0.26902295    -0.40300
H881        H  0.05852909  0.42347993  0.33350459     0.12500
H882        H  0.05841385  0.42925232  0.40935274     0.12100
H883        H  0.11113577  0.42213416  0.42629465     0.11500
H884        H  0.11143326  0.41654966  0.35029073     0.11800
H885        H  0.08154002  0.44425853  0.47347908     0.14500
H886        H  0.09516832  0.41355772  0.49739267     0.13300
H887        H  0.07253204  0.41483720  0.27047149     0.11000
H888        H  0.11853621  0.43475379  0.28756879     0.13000
C889        C  0.23581398  0.45375293  0.61091401     0.19100
C890        C  0.21629482  0.43715724  0.60115122    -0.19000
C891        C  0.19853318  0.43786199  0.61028133    -0.11300
C892        C  0.19993402  0.45527310  0.62959248     0.21300
C893        C  0.21940167  0.47145413  0.64081004    -0.20600
C894        C  0.23707228  0.47073865  0.63177740    -0.11500
C895        C  0.18183839  0.45755313  0.63868407    -0.15600
C896        C  0.16283248  0.44547008  0.62286339    -0.29500
C897        C  0.25443510  0.45265349  0.60000634    -0.03800
C898        C  0.27331536  0.46928889  0.59738802    -0.40300
H899        H  0.21478271  0.42366717  0.58596698     0.12500
H900        H  0.18388593  0.42472765  0.60218566     0.12100
H901        H  0.22100593  0.48489574  0.65641578     0.11500
H902        H  0.25160819  0.48350574  0.64178459     0.11800
H903        H  0.18457533  0.47052718  0.65802885     0.14500
H904        H  0.15950812  0.43258924  0.60279941     0.13300
H905        H  0.25248339  0.43770164  0.59334524     0.11000
H906        H  0.27547423  0.48441733  0.60218658     0.13000
C907        C  0.23449619  0.45120280  0.09884167     0.19100
C908        C  0.21581396  0.43344087  0.10797044    -0.19000
C909        C  0.19801302  0.43436932  0.11534182    -0.11300
C910        C  0.19845929  0.45320600  0.11356344     0.21300
C911        C  0.21705893  0.47086494  0.10402811    -0.20600
C912        C  0.23474463  0.46993479  0.09648322    -0.11500
C913        C  0.18032172  0.45556757  0.12187943    -0.15600
C914        C  0.16096887  0.44007349  0.12707488    -0.29500
C915        C  0.25319097  0.44953536  0.09164472    -0.03800
C916        C  0.27231353  0.46584428  0.08991015    -0.40300
H917        H  0.21501205  0.41876454  0.10980041     0.12500
H918        H  0.18415516  0.42032056  0.12286411     0.12100
H919        H  0.21793785  0.48558137  0.10216428     0.11500
H920        H  0.24837489  0.48404514  0.08836263     0.11800
H921        H  0.18312366  0.47111012  0.12365278     0.14500
H922        H  0.15738300  0.42432249  0.12530731     0.13300
H923        H  0.25117866  0.43434170  0.08843845     0.11000
H924        H  0.27486537  0.48111700  0.09438634     0.13000
C925        C  0.31798758  0.44117419  0.79924589     0.19100
C926        C  0.32763712  0.43516745  0.82924905    -0.19000
C927        C  0.32387190  0.43560634  0.87203908    -0.11300
C928        C  0.31045324  0.44222460  0.88520735     0.21300
C929        C  0.30052818  0.44782294  0.85513606    -0.20600
C930        C  0.30423375  0.44733302  0.81251266    -0.11500
C931        C  0.30856724  0.44621988  0.92969903    -0.15600
C932        C  0.31239145  0.43707991  0.96182149    -0.29500
C933        C  0.32411785  0.44299889  0.75488541    -0.03800
C934        C  0.31180980  0.44201918  0.72322419    -0.40300
H935        H  0.33854599  0.43072135  0.81960759     0.12500
H936        H  0.33230782  0.43183482  0.89455865     0.12100
H937        H  0.29045525  0.45333528  0.86475949     0.11500
H938        H  0.29711446  0.45282753  0.79038599     0.11800
H939        H  0.30464483  0.45792113  0.93618148     0.14500
H940        H  0.31524185  0.42458158  0.95649600     0.13300
H941        H  0.33943031  0.44590145  0.74825042     0.11000
H942        H  0.29604049  0.43780937  0.72902913     0.13000
C943        C  0.32392360  0.45205274  0.29974496     0.19100
C944        C  0.33234364  0.44524645  0.33080562    -0.19000
C945        C  0.32838658  0.44637335  0.37317161    -0.11300
C946        C  0.31608871  0.45456474  0.38501214     0.21300
C947        C  0.30782253  0.46153308  0.35389413    -0.20600
C948        C  0.31159797  0.46019360  0.31151001    -0.11500
C949        C  0.31343377  0.45793381  0.42958417    -0.15600
C950        C  0.31430411  0.44630192  0.46050529    -0.29500
C951        C  0.32939740  0.45197943  0.25547705    -0.03800
C952        C  0.31620720  0.44887892  0.22403599    -0.40300
H953        H  0.34218080  0.43929217  0.32226668     0.12500
H954        H  0.33568619  0.44162068  0.39651165     0.12100
H955        H  0.29870961  0.46831003  0.36246141     0.11500
H956        H  0.30549119  0.46621633  0.28813425     0.11800
H957        H  0.31155740  0.47087717  0.43720029     0.14500
H958        H  0.31499942  0.43266447  0.45324820     0.13300
H959        H  0.34461604  0.45466642  0.24867363     0.11000
H960        H  0.30054459  0.44479453  0.23082568     0.13000
C961        C  0.40796270  0.53522160  0.95400909     0.19100
C962        C  0.40890965  0.53690199  0.90993497    -0.19000
C963        C  0.42440819  0.55449698  0.89063517    -0.11300
C964        C  0.43914673  0.57089643  0.91519837     0.21300
C965        C  0.43784668  0.56944700  0.95921170    -0.20600
C966        C  0.42252778  0.55177171  0.97848968    -0.11500
C967        C  0.45559825  0.58992557  0.89583319    -0.15600
C968        C  0.46395218  0.58985731  0.85875869    -0.29500
C969        C  0.39053439  0.51703179  0.97374804    -0.03800
C970        C  0.39171891  0.51053777  0.01266121    -0.40300
H971        H  0.39755356  0.52461387  0.89042079     0.12500
H972        H  0.42450625  0.55541137  0.85656359     0.12100
H973        H  0.44876478  0.58202843  0.97875181     0.11500
H974        H  0.42176331  0.55141941  0.01254950     0.11800
H975        H  0.46131133  0.60420643  0.91300885     0.14500
H976        H  0.45886024  0.57549743  0.84236043     0.13300
H977        H  0.37602408  0.50955019  0.95666380     0.11000
H978        H  0.40633298  0.51749422  0.02927259     0.13000
C979        C  0.42006517  0.60287511  0.70329302     0.19100
C980        C  0.40336162  0.58891090  0.72747831    -0.19000
C981        C  0.38678890  0.57192342  0.70849058    -0.11300
C982        C  0.38659158  0.56876821  0.66481221     0.21300
C983        C  0.40226887  0.58387411  0.64014903    -0.20600
C984        C  0.41893564  0.60076812  0.65918285    -0.11500
C985        C  0.37144144  0.54927178  0.64434121    -0.15600
C986        C  0.36335009  0.53110234  0.66422735    -0.29500
C987        C  0.43911365  0.61785026  0.72558087    -0.03800
C988        C  0.45780875  0.62322273  0.71087317    -0.40300
H989        H  0.40371808  0.59042199  0.76147240     0.12500
H990        H  0.37454962  0.56096902  0.72822100     0.12100
H991        H  0.40224853  0.58198539  0.60630441     0.11500
H992        H  0.43122790  0.61168566  0.63949908     0.11800
H993        H  0.36939338  0.54952093  0.61040662     0.14500
H994        H  0.36636410  0.53043678  0.69756182     0.13300
H995        H  0.43768220  0.62149822  0.75801564     0.11000
H996        H  0.45944735  0.61861140  0.67948667     0.13000
C997        C  0.55593537  0.68001445  0.50899703     0.19100
C998        C  0.56142255  0.66752400  0.53172951    -0.19000
C999        C  0.56089771  0.66708559  0.57595392    -0.11300
C1000       C  0.55502206  0.67932309  0.59841931     0.21300
C1001       C  0.55093479  0.69282897  0.57564260    -0.20600
C1002       C  0.55126878  0.69311553  0.53148725    -0.11500
C1003       C  0.55216797  0.67785111  0.64515994    -0.15600
C1004       C  0.54668604  0.66048951  0.66660417    -0.29500
C1005       C  0.55379761  0.67814978  0.46214299    -0.03800
C1006       C  0.53810333  0.67837016  0.44233882    -0.40300
H1007       H  0.56531766  0.65747227  0.51521239     0.12500
H1008       H  0.56489572  0.65699774  0.59231364     0.12100
H1009       H  0.54669906  0.70265809  0.59200695     0.11500
H1010       H  0.54749833  0.70333828  0.51492178     0.11800
H1011       H  0.55246441  0.69057974  0.66152328     0.14500
H1012       H  0.54487128  0.64720259  0.64983045     0.13300
H1013       H  0.56333380  0.67384486  0.44466894     0.11000
H1014       H  0.52717290  0.68020045  0.46102256     0.13000
C1015       C  0.52142724  0.66608806  0.00660282     0.19100
C1016       C  0.50334159  0.65861217  0.02973037    -0.19000
C1017       C  0.50338028  0.65637945  0.07343656    -0.11300
C1018       C  0.52154913  0.66174516  0.09577844     0.21300
C1019       C  0.53992627  0.66981954  0.07303312    -0.20600
C1020       C  0.53986105  0.67194481  0.02882261    -0.11500
C1021       C  0.51985383  0.65740991  0.14207872    -0.15600
C1022       C  0.53537321  0.66412768  0.17060108    -0.29500
C1023       C  0.51990301  0.66728795  0.95967548    -0.03800
C1024       C  0.53391367  0.66865292  0.93180921    -0.40300
H1025       H  0.48891488  0.65406044  0.01378498     0.12500
H1026       H  0.48897407  0.65015979  0.08986367     0.12100
H1027       H  0.55424446  0.67407548  0.08897396     0.11500
H1028       H  0.55421685  0.67815255  0.01234531     0.11800
H1029       H  0.50433498  0.64802662  0.15359109     0.14500
H1030       H  0.55109230  0.67421289  0.16118770     0.13300
H1031       H  0.50564590  0.66554064  0.94725223     0.11000
H1032       H  0.54793894  0.66949130  0.94288178     0.13000
C1033       C  0.41489457  0.53698655  0.47124994     0.19100
C1034       C  0.42090648  0.53593912  0.43007790    -0.19000
C1035       C  0.43679702  0.55333683  0.41081968    -0.11300
C1036       C  0.44655397  0.57224060  0.43211648     0.21300
C1037       C  0.44070648  0.57318086  0.47346648    -0.20600
C1038       C  0.42521941  0.55571298  0.49306573    -0.11500
C1039       C  0.46096549  0.59156587  0.41034650    -0.15600
C1040       C  0.47424775  0.59287794  0.38091457    -0.29500
C1041       C  0.39644539  0.51921187  0.48935856    -0.03800
C1042       C  0.39505831  0.51476756  0.53068801    -0.40300
H1043       H  0.41298473  0.52174341  0.41249322     0.12500
H1044       H  0.44064326  0.55223077  0.37854162     0.12100
H1045       H  0.44780296  0.58761620  0.49027338     0.11500
H1046       H  0.42059298  0.55714230  0.52446087     0.11800
H1047       H  0.46040448  0.60518570  0.41867012     0.14500
H1048       H  0.47583300  0.57968543  0.37423989     0.13300
H1049       H  0.38347018  0.51017819  0.46851023     0.11000
H1050       H  0.40846301  0.52309543  0.55090085     0.13000
C1051       C  0.38904327  0.56153753  0.18369429     0.19100
C1052       C  0.39256359  0.56875355  0.22534556    -0.19000
C1053       C  0.41005173  0.58736430  0.23578525    -0.11300
C1054       C  0.42453916  0.59877509  0.20473694     0.21300
C1055       C  0.42043271  0.59214586  0.16275525    -0.20600
C1056       C  0.40278391  0.57380569  0.15218260    -0.11500
C1057       C  0.44571016  0.61434874  0.21657236    -0.15600
C1058       C  0.45062568  0.62651926  0.25051939    -0.29500
C1059       C  0.37317108  0.54000655  0.17475053    -0.03800
C1060       C  0.36399224  0.53413514  0.13685336    -0.40300
H1061       H  0.38233765  0.55946026  0.25017193     0.12500
H1062       H  0.41308830  0.59183285  0.26863310     0.12100
H1063       H  0.43158279  0.60049397  0.13851952     0.11500
H1064       H  0.40087891  0.56849656  0.11991886     0.11800
H1065       H  0.45789540  0.61390473  0.19954445     0.14500
H1066       H  0.43910842  0.62838716  0.26676662     0.13300
H1067       H  0.37054173  0.52856397  0.19848634     0.11000
H1068       H  0.36599982  0.54568279  0.11389738     0.13000
C1069       C  0.40412590  0.39134704  0.59377393     0.19100
C1070       C  0.38875561  0.38879903  0.56492977    -0.19000
C1071       C  0.37830874  0.39957555  0.56994736    -0.11300
C1072       C  0.38346359  0.41351645  0.60339337     0.21300
C1073       C  0.39862702  0.41582962  0.63247724    -0.20600
C1074       C  0.40867992  0.40468962  0.62807606    -0.11500
C1075       C  0.37485702  0.42729388  0.60666227    -0.15600
C1076       C  0.35553683  0.42194946  0.59559190    -0.29500
C1077       C  0.41666039  0.38169764  0.58513713    -0.03800
C1078       C  0.42430018  0.37494615  0.61569293    -0.40300
H1079       H  0.38511926  0.37874934  0.53800829     0.12500
H1080       H  0.36696065  0.39774086  0.54656514     0.12100
H1081       H  0.40299243  0.42661549  0.65827121     0.11500
H1082       H  0.42072787  0.40731136  0.65033580     0.11800
H1083       H  0.38472445  0.44232223  0.62037420     0.14500
H1084       H  0.34487112  0.40646113  0.58516724     0.13300
H1085       H  0.41947466  0.37982890  0.55237590     0.11000
H1086       H  0.42000768  0.37481977  0.64829491     0.13000
C1087       C  0.38526819  0.41311621  0.10153651     0.19100
C1088       C  0.40372568  0.41871464  0.12279604    -0.19000
C1089       C  0.41237926  0.40616316  0.12181641    -0.11300
C1090       C  0.40307135  0.38780873  0.09842391     0.21300
C1091       C  0.38448198  0.38213295  0.07729482    -0.20600
C1092       C  0.37564995  0.39461100  0.07880076    -0.11500
C1093       C  0.41235384  0.37439923  0.09530828    -0.15600
C1094       C  0.43244433  0.38134605  0.10230555    -0.29500
C1095       C  0.37711761  0.42742983  0.10241769    -0.03800
C1096       C  0.35700980  0.42138027  0.10103581    -0.40300
H1097       H  0.41142286  0.43283400  0.14067609     0.12500
H1098       H  0.42627756  0.41093346  0.13984132     0.12100
H1099       H  0.37691557  0.36813800  0.05900591     0.11500
H1100       H  0.36160352  0.39000632  0.06134946     0.11800
H1101       H  0.40267839  0.35876413  0.08440789     0.14500
H1102       H  0.44257705  0.39731747  0.11010233     0.13300
H1103       H  0.38816651  0.44359061  0.10660499     0.11000
H1104       H  0.34570361  0.40518824  0.09978915     0.13000
C1105       C  0.44216702  0.33575958  0.88727402     0.19100
C1106       C  0.45686467  0.34999177  0.85972915    -0.19000
C1107       C  0.45581727  0.34602529  0.81665079    -0.11300
C1108       C  0.43993915  0.32765658  0.79960158     0.21300
C1109       C  0.42481196  0.31352989  0.82678332    -0.20600
C1110       C  0.42600375  0.31741961  0.87042838    -0.11500
C1111       C  0.43920034  0.32374191  0.75335094    -0.15600
C1112       C  0.45665029  0.32929380  0.73256981    -0.29500
C1113       C  0.44450321  0.34128848  0.93281729    -0.03800
C1114       C  0.43641890  0.32802070  0.96511051    -0.40300
H1115       H  0.46937273  0.36431185  0.87163138     0.12500
H1116       H  0.46738255  0.35755173  0.79651187     0.12100
H1117       H  0.41226899  0.29939916  0.81433131     0.11500
H1118       H  0.41417080  0.30625771  0.89059460     0.11800
H1119       H  0.42470271  0.31739616  0.73640466     0.14500
H1120       H  0.47071149  0.33486778  0.75091684     0.13300
H1121       H  0.45499613  0.35729163  0.94023618     0.11000
H1122       H  0.42672347  0.31176286  0.95919670     0.13000
C1123       C  0.45161531  0.34669212  0.38717376     0.19100
C1124       C  0.46860990  0.35440143  0.36053583    -0.19000
C1125       C  0.46608546  0.35116157  0.31714550    -0.11300
C1126       C  0.44641071  0.34010510  0.29900215     0.21300
C1127       C  0.42930274  0.33291950  0.32527221    -0.20600
C1128       C  0.43184146  0.33602043  0.36911553    -0.11500
C1129       C  0.44381860  0.33667100  0.25261239    -0.15600
C1130       C  0.45704874  0.33352247  0.23045556    -0.29500
C1131       C  0.45570102  0.35088188  0.43309398    -0.03800
C1132       C  0.44226812  0.34121087  0.46450760    -0.40300
H1133       H  0.48402289  0.36297225  0.37337925     0.12500
H1134       H  0.47961898  0.35762014  0.29773597     0.12100
H1135       H  0.41399081  0.32469183  0.31190522     0.11500
H1136       H  0.41837228  0.33029597  0.38847807     0.11800
H1137       H  0.43120727  0.33700418  0.23664718     0.14500
H1138       H  0.46882562  0.33201353  0.24725515     0.13300
H1139       H  0.47133772  0.36229675  0.44155133     0.11000
H1140       H  0.42667210  0.32927387  0.45772262     0.13000
C1141       C  0.78871953  0.54935874  0.90558750     0.19100
C1142       C  0.77254523  0.54086509  0.93451907    -0.19000
C1143       C  0.75307290  0.53746162  0.92345309    -0.11300
C1144       C  0.74916241  0.54226136  0.88280846     0.21300
C1145       C  0.76523362  0.55058010  0.85365721    -0.20600
C1146       C  0.78483592  0.55425499  0.86491056    -0.11500
C1147       C  0.72842009  0.53835209  0.86983018    -0.15600
C1148       C  0.71591447  0.54056286  0.89652030    -0.29500
C1149       C  0.80876507  0.55136598  0.91841671    -0.03800
C1150       C  0.82683166  0.56311319  0.89888280    -0.40300
H1151       H  0.77493838  0.53666310  0.96587197     0.12500
H1152       H  0.74097370  0.53061732  0.94645198     0.12100
H1153       H  0.76261476  0.55429800  0.82203327     0.11500
H1154       H  0.79665241  0.56036000  0.84129851     0.11800
H1155       H  0.72405640  0.53529632  0.83674462     0.14500
H1156       H  0.72116157  0.54581954  0.92848539     0.13300
H1157       H  0.80854218  0.54254550  0.94574489     0.11000
H1158       H  0.82783014  0.57275886  0.87256660     0.13000
C1159       C  0.58686854  0.61674219  0.83073284     0.19100
C1160       C  0.60507319  0.62100495  0.81063805    -0.19000
C1161       C  0.61527950  0.61040367  0.82158342    -0.11300
C1162       C  0.60759210  0.59537393  0.85343328     0.21300
C1163       C  0.58966296  0.59155955  0.87418004    -0.20600
C1164       C  0.57947182  0.60207695  0.86316191    -0.11500
C1165       C  0.61730562  0.58306762  0.86616611    -0.15600
C1166       C  0.63433030  0.58451148  0.84920232    -0.29500
C1167       C  0.57601470  0.62785623  0.81757464    -0.03800
C1168       C  0.55559838  0.61959291  0.82126802    -0.40300
H1169       H  0.61125131  0.63235687  0.78583691     0.12500
H1170       H  0.62904620  0.61405494  0.80476775     0.12100
H1171       H  0.58341162  0.58028724  0.89912685     0.11500
H1172       H  0.56592116  0.59880009  0.88052291     0.11800
H1173       H  0.60965385  0.57179159  0.89081985     0.14500
H1174       H  0.64249355  0.59543962  0.82445330     0.13300
H1175       H  0.58482873  0.64265322  0.80240571     0.11000
H1176       H  0.54651467  0.60417353  0.83345009     0.13000
C1177       C  0.54794375  0.40063128  0.95630108     0.19100
C1178       C  0.54652119  0.40858566  0.91726215    -0.19000
C1179       C  0.56308193  0.42638141  0.90145498    -0.11300
C1180       C  0.58159440  0.43678571  0.92416554     0.21300
C1181       C  0.58353719  0.42841125  0.96239845    -0.20600
C1182       C  0.56681399  0.41049008  0.97843557    -0.11500
C1183       C  0.59692392  0.45758562  0.90947378    -0.15600
C1184       C  0.61688850  0.46855970  0.92080897    -0.29500
C1185       C  0.52863017  0.38414636  0.97502676    -0.03800
C1186       C  0.52758372  0.37296332  0.00903920    -0.40300
H1187       H  0.53219486  0.40151312  0.89970846     0.12500
H1188       H  0.56107752  0.43257657  0.87212995     0.12100
H1189       H  0.59743687  0.43628811  0.98113727     0.11500
H1190       H  0.56842229  0.40520913  0.00918101     0.11800
H1191       H  0.59104718  0.46464666  0.88779035     0.14500
H1192       H  0.62420482  0.46191321  0.93938587     0.13300
H1193       H  0.51447782  0.38253285  0.96226831     0.11000
H1194       H  0.54135995  0.37397379  0.02222528     0.13000
C1195       C  0.53235063  0.43642574  0.71257927     0.19100
C1196       C  0.54183306  0.45751880  0.70468700    -0.19000
C1197       C  0.55915666  0.47137584  0.72824182    -0.11300
C1198       C  0.56711479  0.46419112  0.75999017     0.21300
C1199       C  0.55675537  0.44330165  0.76953540    -0.20600
C1200       C  0.53938813  0.42962757  0.74671706    -0.11500
C1201       C  0.58682100  0.47743373  0.78211556    -0.15600
C1202       C  0.59444051  0.49736897  0.79052005    -0.29500
C1203       C  0.51653349  0.42146795  0.68296268    -0.03800
C1204       C  0.51629501  0.40403093  0.67380799    -0.40300
H1205       H  0.53655275  0.46314236  0.67884876     0.12500
H1206       H  0.56686501  0.48743395  0.72010414     0.12100
H1207       H  0.56240976  0.43743846  0.79421675     0.11500
H1208       H  0.53191154  0.41357829  0.75492196     0.11800
H1209       H  0.59474889  0.46991581  0.79485670     0.14500
H1210       H  0.58602225  0.50491941  0.78132322     0.13300
H1211       H  0.50642276  0.42544502  0.66618588     0.11000
H1212       H  0.52770139  0.40116451  0.68826229     0.13000
C1213       C  0.78875803  0.55001560  0.40349871     0.19100
C1214       C  0.76959119  0.53270903  0.41150752    -0.19000
C1215       C  0.75141863  0.53322686  0.40635072    -0.11300
C1216       C  0.75180349  0.55115650  0.39253171     0.21300
C1217       C  0.77103194  0.56856179  0.38489507    -0.20600
C1218       C  0.78925039  0.56804629  0.39020243    -0.11500
C1219       C  0.73275735  0.55238747  0.38497774    -0.15600
C1220       C  0.71343632  0.53641481  0.38835352    -0.29500
C1221       C  0.80755177  0.54820032  0.40825384    -0.03800
C1222       C  0.82689935  0.56417180  0.41082566    -0.40300
H1223       H  0.76863028  0.51859607  0.42182391     0.12500
H1224       H  0.73726111  0.51939841  0.41321248     0.12100
H1225       H  0.77198031  0.58261478  0.37419782     0.11500
H1226       H  0.80354994  0.58169509  0.38290474     0.11800
H1227       H  0.73476913  0.56704913  0.37510925     0.14500
H1228       H  0.71078744  0.52149583  0.39745302     0.13300
H1229       H  0.80524060  0.53287108  0.41121932     0.11000
H1230       H  0.82967839  0.57968399  0.41026324     0.13000
C1231       C  0.60333642  0.59277274  0.35058831     0.19100
C1232       C  0.58248524  0.58380576  0.33999214    -0.19000
C1233       C  0.57322710  0.59567924  0.33516146    -0.11300
C1234       C  0.58460505  0.61704824  0.34055286     0.21300
C1235       C  0.60542233  0.62608373  0.35176855    -0.20600
C1236       C  0.61475602  0.61414077  0.35658174    -0.11500
C1237       C  0.57487485  0.62997270  0.33578989    -0.15600
C1238       C  0.55861274  0.62449411  0.31008282    -0.29500
C1239       C  0.61189800  0.57890836  0.35657171    -0.03800
C1240       C  0.63190439  0.58490142  0.36153546    -0.40300
H1241       H  0.57317631  0.56740417  0.33574523     0.12500
H1242       H  0.55699297  0.58790977  0.32812884     0.12100
H1243       H  0.61451318  0.64245274  0.35666279     0.11500
H1244       H  0.63074775  0.62172835  0.36558950     0.11800
H1245       H  0.58146107  0.64437256  0.35282139     0.14500
H1246       H  0.55294459  0.61077877  0.29103540     0.13300
H1247       H  0.60087423  0.56260333  0.35699782     0.11000
H1248       H  0.64349229  0.60097474  0.36111470     0.13000
C1249       C  0.56430994  0.40681492  0.50618837     0.19100
C1250       C  0.58149025  0.42291558  0.52621849    -0.19000
C1251       C  0.59703681  0.43866223  0.50285704    -0.11300
C1252       C  0.59562068  0.43890434  0.45860029     0.21300
C1253       C  0.57923814  0.42192627  0.43836147    -0.20600
C1254       C  0.56366516  0.40601294  0.46186328    -0.11500
C1255       C  0.61000255  0.45714014  0.43308194    -0.15600
C1256       C  0.62017463  0.47627835  0.44917658    -0.29500
C1257       C  0.54614702  0.39373573  0.53247411    -0.03800
C1258       C  0.53008542  0.37538781  0.52161213    -0.40300
H1259       H  0.58243786  0.42383430  0.56033867     0.12500
H1260       H  0.60978414  0.45089561  0.51980505     0.12100
H1261       H  0.57784180  0.42154397  0.40427673     0.11500
H1262       H  0.55055544  0.39395212  0.44537947     0.11800
H1263       H  0.61028541  0.45515187  0.39922538     0.14500
H1264       H  0.61867803  0.47876308  0.48226285     0.13300
H1265       H  0.54531146  0.40045426  0.56213834     0.11000
H1266       H  0.53042382  0.36710017  0.49409320     0.13000
C1267       C  0.67644160  0.54798587  0.66113771     0.19100
C1268       C  0.65992289  0.53664622  0.63360028    -0.19000
C1269       C  0.66158076  0.54104317  0.59074081    -0.11300
C1270       C  0.67993116  0.55684881  0.57408577     0.21300
C1271       C  0.69684976  0.56775390  0.60118544    -0.20600
C1272       C  0.69506805  0.56354010  0.64465508    -0.11500
C1273       C  0.68135364  0.56117237  0.52816729    -0.15600
C1274       C  0.66527892  0.56003768  0.50713311    -0.29500
C1275       C  0.67332638  0.54236049  0.70634785    -0.03800
C1276       C  0.68268622  0.55538033  0.73871087    -0.40300
H1277       H  0.64552349  0.52438314  0.64538766     0.12500
H1278       H  0.64849919  0.53180993  0.57047240     0.12100
H1279       H  0.71127528  0.57968049  0.58882506     0.11500
H1280       H  0.70824723  0.57216972  0.66504632     0.11800
H1281       H  0.69491011  0.56378624  0.51139951     0.14500
H1282       H  0.65220513  0.55813170  0.52485353     0.13300
H1283       H  0.66119818  0.52686977  0.71322980     0.11000
H1284       H  0.69432894  0.57116659  0.73292003     0.13000
C1285       C  0.65980732  0.54890267  0.08031687     0.19100
C1286       C  0.64783973  0.55014959  0.11227074    -0.19000
C1287       C  0.65325687  0.55041776  0.15466137    -0.11300
C1288       C  0.67042882  0.54878297  0.16589031     0.21300
C1289       C  0.68236775  0.54744423  0.13390131    -0.20600
C1290       C  0.67731241  0.54785074  0.09138956    -0.11500
C1291       C  0.67470966  0.54645844  0.21073032    -0.15600
C1292       C  0.67286891  0.55757189  0.24146330    -0.29500
C1293       C  0.65263594  0.54651674  0.03596831    -0.03800
C1294       C  0.66523486  0.55668178  0.00397882    -0.40300
H1295       H  0.63411713  0.55064769  0.10438195     0.12500
H1296       H  0.64348060  0.55095019  0.17869714     0.12100
H1297       H  0.69546936  0.54585792  0.14185582     0.11500
H1298       H  0.68651095  0.54640318  0.06722926     0.11800
H1299       H  0.67862684  0.53485841  0.21861696     0.14500
H1300       H  0.67011294  0.56991227  0.23299027     0.13300
H1301       H  0.63645868  0.53615512  0.02958936     0.11000
H1302       H  0.68106523  0.56819696  0.01055120     0.13000
C1303       C  0.57719457  0.46322383  0.24505382     0.19100
C1304       C  0.57656219  0.46055067  0.20126840    -0.19000
C1305       C  0.56065963  0.44298351  0.18234254    -0.11300
C1306       C  0.54512102  0.42757802  0.20704549     0.21300
C1307       C  0.54593684  0.43014016  0.25091218    -0.20600
C1308       C  0.56174158  0.44779963  0.26978844    -0.11500
C1309       C  0.52859474  0.40821141  0.18831453    -0.15600
C1310       C  0.52205847  0.40693481  0.14830698    -0.29500
C1311       C  0.59505696  0.48129257  0.26442124    -0.03800
C1312       C  0.59396196  0.48947858  0.30112973    -0.40300
H1313       H  0.58853712  0.47200706  0.18169417     0.12500
H1314       H  0.56101776  0.44127240  0.14858078     0.12100
H1315       H  0.53438506  0.41835641  0.27067521     0.11500
H1316       H  0.56218288  0.44899105  0.30381658     0.11800
H1317       H  0.52143880  0.39469870  0.20820214     0.14500
H1318       H  0.52825210  0.42057085  0.12888924     0.13300
H1319       H  0.60966841  0.48762364  0.24851637     0.11000
H1320       H  0.57927996  0.48376074  0.31635674     0.13000
C1321       C  0.53702185  0.74975232  0.78118619     0.19100
C1322       C  0.55046808  0.76749263  0.80400636    -0.19000
C1323       C  0.55006020  0.78571341  0.79857554    -0.11300
C1324       C  0.53625953  0.78665547  0.76966118     0.21300
C1325       C  0.52310339  0.76899305  0.74638905    -0.20600
C1326       C  0.52351763  0.75085904  0.75181111    -0.11500
C1327       C  0.53464691  0.80534721  0.76254536    -0.15600
C1328       C  0.54761390  0.82416172  0.77815232    -0.29500
C1329       C  0.53746264  0.73043057  0.78866253    -0.03800
C1330       C  0.52112820  0.71172507  0.78129785    -0.40300
H1331       H  0.56110948  0.76715831  0.82668677     0.12500
H1332       H  0.56040530  0.79879483  0.81749737     0.12100
H1333       H  0.51242718  0.76921505  0.72363098     0.11500
H1334       H  0.51336165  0.73785130  0.73243913     0.11800
H1335       H  0.52211683  0.80351122  0.74235444     0.14500
H1336       H  0.56056521  0.82685364  0.79777133     0.13300
H1337       H  0.55114301  0.73158844  0.80288430     0.11000
H1338       H  0.50693818  0.71038162  0.76981145     0.13000
C1339       C  0.51725781  0.74518917  0.29581885     0.19100
C1340       C  0.50203935  0.74927480  0.30945217    -0.19000
C1341       C  0.50319530  0.76797295  0.30040031    -0.11300
C1342       C  0.51975532  0.78332318  0.27791874     0.21300
C1343       C  0.53502980  0.77932056  0.26408589    -0.20600
C1344       C  0.53383834  0.76055601  0.27298581    -0.11500
C1345       C  0.52008018  0.80287057  0.26833651    -0.15600
C1346       C  0.53715293  0.82070800  0.25901618    -0.29500
C1347       C  0.51523513  0.72492188  0.30681773    -0.03800
C1348       C  0.52699993  0.71778520  0.29110759    -0.40300
H1349       H  0.48908794  0.73788627  0.32711657     0.12500
H1350       H  0.49111222  0.77049417  0.31127185     0.12100
H1351       H  0.54780010  0.79048240  0.24579222     0.11500
H1352       H  0.54608814  0.75839533  0.26205196     0.11800
H1353       H  0.50564040  0.80267264  0.27031179     0.14500
H1354       H  0.55193592  0.82162296  0.25919546     0.13300
H1355       H  0.50324336  0.71528034  0.32874317     0.11000
H1356       H  0.53882927  0.72676726  0.26852408     0.13000
C1357       C  0.54690295  0.87613264  0.55058533     0.19100
C1358       C  0.53464651  0.86151291  0.52017809    -0.19000
C1359       C  0.53591053  0.86677353  0.47756073    -0.11300
C1360       C  0.54916488  0.88696909  0.46439895     0.21300
C1361       C  0.56139500  0.90168840  0.49475434    -0.20600
C1362       C  0.56049198  0.89628566  0.53745507    -0.11500
C1363       C  0.54951314  0.89290655  0.41945272    -0.15600
C1364       C  0.54873146  0.88073762  0.38785398    -0.29500
C1365       C  0.54301268  0.87044215  0.59586190    -0.03800
C1366       C  0.55714511  0.87864850  0.62712847    -0.40300
H1367       H  0.52375666  0.84599881  0.52957459     0.12500
H1368       H  0.52595076  0.85518729  0.45507974     0.12100
H1369       H  0.57156641  0.91739296  0.48541920     0.11500
H1370       H  0.56970429  0.90803646  0.56030170     0.11800
H1371       H  0.55092280  0.90761015  0.41231476     0.14500
H1372       H  0.54916782  0.86694451  0.39541319     0.13300
H1373       H  0.52738683  0.85902636  0.60382043     0.11000
H1374       H  0.57310114  0.88913389  0.61980352     0.13000
C1375       C  0.57397706  0.88679421  0.96093908     0.19100
C1376       C  0.58345266  0.90271111  0.99038871    -0.19000
C1377       C  0.57985585  0.89867326  0.03361038    -0.11300
C1378       C  0.56690967  0.87852504  0.04799560     0.21300
C1379       C  0.55852839  0.86255407  0.01832853    -0.20600
C1380       C  0.56196898  0.86663173  0.97528813    -0.11500
C1381       C  0.55992703  0.87358801  0.09249641    -0.15600
C1382       C  0.56839550  0.88647699  0.12542092    -0.29500
C1383       C  0.57386672  0.89137683  0.91556062    -0.03800
C1384       C  0.55591308  0.88646088  0.89711271    -0.40300
H1385       H  0.59252804  0.91838904  0.97980270     0.12500
H1386       H  0.58637341  0.91150865  0.05509843     0.12100
H1387       H  0.54853392  0.84691682  0.02833466     0.11500
H1388       H  0.55447824  0.85413779  0.95295734     0.11800
H1389       H  0.54652512  0.85867596  0.09810840     0.14500
H1390       H  0.58220247  0.90117941  0.12150612     0.13300
H1391       H  0.58813306  0.89952241  0.89842832     0.11000
H1392       H  0.54222908  0.87959236  0.91640958     0.13000
C1393       C  0.73602163  0.23089093  0.74821146     0.19100
C1394       C  0.73683625  0.24959359  0.74050860    -0.19000
C1395       C  0.75559233  0.26766979  0.73425380    -0.11300
C1396       C  0.77416518  0.26756143  0.73598231     0.21300
C1397       C  0.77337918  0.24894904  0.74448013    -0.20600
C1398       C  0.75465038  0.23089689  0.75077936    -0.11500
C1399       C  0.79445810  0.28601976  0.72650067    -0.15600
C1400       C  0.79823255  0.30546256  0.72658816    -0.29500
C1401       C  0.71556849  0.21197047  0.75433033    -0.03800
C1402       C  0.71229114  0.19272542  0.75196539    -0.40300
H1403       H  0.72282711  0.25017530  0.73859683     0.12500
H1404       H  0.75531709  0.28148822  0.72697963     0.12100
H1405       H  0.78738359  0.24833591  0.74614260     0.11500
H1406       H  0.75499399  0.21711802  0.75798468     0.11800
H1407       H  0.80688477  0.28337531  0.71858583     0.14500
H1408       H  0.78644509  0.30873184  0.73606481     0.13300
H1409       H  0.70262846  0.21401046  0.76085012     0.11000
H1410       H  0.72482350  0.19022038  0.74467694     0.13000
C1411       C  0.61905769  0.02987366  0.77038063     0.19100
C1412       C  0.62247303  0.01770189  0.74204181    -0.19000
C1413       C  0.61153984  0.99627421  0.74524286    -0.11300
C1414       C  0.59701963  0.98651546  0.77733610     0.21300
C1415       C  0.59421149  0.99878932  0.80649804    -0.20600
C1416       C  0.60507340  0.02011733  0.80323830    -0.11500
C1417       C  0.58405094  0.96380117  0.78166012    -0.15600
C1418       C  0.58473302  0.94976667  0.75665543    -0.29500
C1419       C  0.63005712  0.05258573  0.76467716    -0.03800
C1420       C  0.62214373  0.06411952  0.77738297    -0.40300
H1421       H  0.63329986  0.02478093  0.71668763     0.12500
H1422       H  0.61441430  0.98760184  0.72215900     0.12100
H1423       H  0.58337919  0.99183204  0.83189950     0.11500
H1424       H  0.60249402  0.02886852  0.82672528     0.11800
H1425       H  0.57299458  0.95828651  0.80705015     0.14500
H1426       H  0.59569259  0.95438391  0.73135847     0.13300
H1427       H  0.64420155  0.05974496  0.74694185     0.11000
H1428       H  0.60723560  0.05680195  0.79215951     0.13000
C1429       C  0.73710399  0.23026015  0.24357153     0.19100
C1430       C  0.73809621  0.24903540  0.23591003    -0.19000
C1431       C  0.75694007  0.26701376  0.23053738    -0.11300
C1432       C  0.77536645  0.26667508  0.23275208     0.21300
C1433       C  0.77446151  0.24807075  0.24172024    -0.20600
C1434       C  0.75560873  0.23005683  0.24694265    -0.11500
C1435       C  0.79573843  0.28542432  0.22674604    -0.15600
C1436       C  0.79841019  0.30144328  0.20325910    -0.29500
C1437       C  0.71654480  0.21159920  0.24933403    -0.03800
C1438       C  0.71306317  0.19227435  0.25003858    -0.40300
H1439       H  0.72419470  0.24981554  0.23401708     0.12500
H1440       H  0.75697526  0.28115826  0.22529271     0.12100
H1441       H  0.78842271  0.24742679  0.24434078     0.11500
H1442       H  0.75579309  0.21620157  0.25416123     0.11800
H1443       H  0.80907666  0.28561942  0.24044196     0.14500
H1444       H  0.78538348  0.30096044  0.18739548     0.13300
H1445       H  0.70361546  0.21394207  0.25335125     0.11000
H1446       H  0.72548105  0.18927097  0.24552265     0.13000
C1447       C  0.58791747  0.98671486  0.26234459     0.19100
C1448       C  0.57864485  0.99878608  0.26120891    -0.19000
C1449       C  0.59036559  0.02014490  0.26212338    -0.11300
C1450       C  0.61189475  0.03024661  0.26458205     0.21300
C1451       C  0.62128452  0.01825181  0.26525271    -0.20600
C1452       C  0.60949464  0.99675765  0.26433845    -0.11500
C1453       C  0.62476810  0.05313461  0.26384411    -0.15600
C1454       C  0.61760714  0.06542949  0.27592179    -0.29500
C1455       C  0.57426713  0.96392066  0.26031975    -0.03800
C1456       C  0.58037507  0.95002110  0.26471044    -0.40300
H1457       H  0.56213008  0.99164319  0.25913972     0.12500
H1458       H  0.58238368  0.02860354  0.25969925     0.12100
H1459       H  0.63782239  0.02554386  0.26642388     0.11500
H1460       H  0.61743953  0.98824346  0.26464801     0.11800
H1461       H  0.64030469  0.05997830  0.25216513     0.14500
H1462       H  0.60241033  0.05871557  0.28918403     0.13300
H1463       H  0.55801706  0.95823421  0.25550184     0.11000
H1464       H  0.59633981  0.95493330  0.27058900     0.13000
C1465       C  0.67215792  0.13944209  0.97288311     0.19100
C1466       C  0.65934986  0.14282817  0.99913911    -0.19000
C1467       C  0.65896383  0.13952935  0.04253020    -0.11300
C1468       C  0.67164475  0.13300923  0.06117342     0.21300
C1469       C  0.68481349  0.12992716  0.03518164    -0.20600
C1470       C  0.68489599  0.13284684  0.99125539    -0.11500
C1471       C  0.67168856  0.13042812  0.10786284    -0.15600
C1472       C  0.65413368  0.12227883  0.12975526    -0.29500
C1473       C  0.67206467  0.14381956  0.92703034    -0.03800
C1474       C  0.67574622  0.13412301  0.89574708    -0.40300
H1475       H  0.64951184  0.14806484  0.98596058     0.12500
H1476       H  0.64904607  0.14259329  0.06169327     0.12100
H1477       H  0.69492736  0.12515331  0.04884292     0.11500
H1478       H  0.69522679  0.13044840  0.97200296     0.11800
H1479       H  0.68618673  0.13567306  0.12425625     0.14500
H1480       H  0.63972052  0.11592231  0.11242451     0.13300
H1481       H  0.66673629  0.15429810  0.91849886     0.11000
H1482       H  0.67961922  0.12245657  0.90316766     0.13000
C1483       C  0.67277580  0.13538672  0.56070061     0.19100
C1484       C  0.68591501  0.13279827  0.53370170    -0.19000
C1485       C  0.68532753  0.13564016  0.48992398    -0.11300
C1486       C  0.67197876  0.14172846  0.47265308     0.21300
C1487       C  0.65927549  0.14478115  0.49994771    -0.20600
C1488       C  0.65948235  0.14143735  0.54328610    -0.11500
C1489       C  0.67122649  0.14581106  0.42681488    -0.15600
C1490       C  0.67444239  0.13574185  0.39560215    -0.29500
C1491       C  0.67332827  0.13257081  0.60716863    -0.03800
C1492       C  0.65585306  0.12227432  0.62906702    -0.40300
H1493       H  0.69646832  0.12837855  0.54645080     0.12500
H1494       H  0.69561498  0.13355277  0.46986279     0.12100
H1495       H  0.64900139  0.14965960  0.48761235     0.11500
H1496       H  0.64950292  0.14399374  0.56340077     0.11800
H1497       H  0.66599692  0.15637917  0.41838304     0.14500
H1498       H  0.67801319  0.12387927  0.40322469     0.13300
H1499       H  0.68804788  0.13940414  0.62337068     0.11000
H1500       H  0.64141946  0.11465678  0.61169640     0.13000
C1501       C  0.45963063  0.25253170  0.58935019     0.19100
C1502       C  0.47297606  0.24693447  0.60841100    -0.19000
C1503       C  0.46963615  0.22703299  0.60458950    -0.11300
C1504       C  0.45281637  0.21204535  0.58119892     0.21300
C1505       C  0.43917689  0.21746740  0.56301444    -0.20600
C1506       C  0.44253177  0.23741820  0.56678104    -0.11500
C1507       C  0.44912620  0.19079588  0.57471441    -0.15600
C1508       C  0.46420395  0.18622054  0.57695218    -0.29500
C1509       C  0.46416955  0.27411498  0.59474725    -0.03800
C1510       C  0.45300263  0.28196153  0.57831020    -0.40300
H1511       H  0.48612286  0.25804435  0.62651078     0.12500
H1512       H  0.48020109  0.22349660  0.62045353     0.12100
H1513       H  0.42599256  0.20627339  0.54515168     0.11500
H1514       H  0.43163991  0.24074224  0.55184380     0.11800
H1515       H  0.43389496  0.17892576  0.56500476     0.14500
H1516       H  0.47968682  0.19823931  0.58436340     0.13300
H1517       H  0.47743855  0.28409055  0.61413278     0.11000
H1518       H  0.43954018  0.27259957  0.55910514     0.13000
C1519       C  0.56057928  0.12021175  0.36870443     0.19100
C1520       C  0.54248267  0.10249258  0.38045193    -0.19000
C1521       C  0.52780861  0.10394116  0.40443670    -0.11300
C1522       C  0.53086085  0.12321346  0.41599256     0.21300
C1523       C  0.54870185  0.14088492  0.40320221    -0.20600
C1524       C  0.56352600  0.13942472  0.38019706    -0.11500
C1525       C  0.51571040  0.12557160  0.44077195    -0.15600
C1526       C  0.50482063  0.11275809  0.47199686    -0.29500
C1527       C  0.57592580  0.11876019  0.34263782    -0.03800
C1528       C  0.59605963  0.13084780  0.35024509    -0.40300
H1529       H  0.53980852  0.08755912  0.37137045     0.12500
H1530       H  0.51396312  0.09006834  0.41317171     0.12100
H1531       H  0.55127536  0.15588322  0.41143697     0.11500
H1532       H  0.57711733  0.15334982  0.37059166     0.11800
H1533       H  0.51504409  0.13945806  0.43602598     0.14500
H1534       H  0.50668462  0.09979047  0.47963738     0.13300
H1535       H  0.57062951  0.10791974  0.31665645     0.11000
H1536       H  0.60110784  0.14056077  0.37809573     0.13000
C1537       C  0.59235076  0.17616943  0.69270818     0.19100
C1538       C  0.57453518  0.17249721  0.71352143    -0.19000
C1539       C  0.55755036  0.17007377  0.69056826    -0.11300
C1540       C  0.55812827  0.17133007  0.64626514     0.21300
C1541       C  0.57663504  0.17710835  0.62592421    -0.20600
C1542       C  0.59362047  0.17954520  0.64886758    -0.11500
C1543       C  0.53949241  0.16539693  0.62024120    -0.15600
C1544       C  0.52071959  0.15097740  0.63276533    -0.29500
C1545       C  0.60812172  0.17393024  0.71672390    -0.03800
C1546       C  0.61871712  0.16614846  0.69858196    -0.40300
H1547       H  0.57329481  0.17025941  0.74735630     0.12500
H1548       H  0.54381490  0.16656987  0.70748722     0.12100
H1549       H  0.57763575  0.17866876  0.59192751     0.11500
H1550       H  0.60742622  0.18329188  0.63196298     0.11800
H1551       H  0.54152013  0.17122454  0.58821018     0.14500
H1552       H  0.51869701  0.14401804  0.66364772     0.13300
H1553       H  0.60827805  0.17503710  0.75091296     0.11000
H1554       H  0.61716417  0.16312715  0.66492547     0.13000
C1555       C  0.46202991  0.25219049  0.08706034     0.19100
C1556       C  0.46642274  0.24097085  0.11652210    -0.19000
C1557       C  0.46314300  0.22150477  0.10637541    -0.11300
C1558       C  0.45591016  0.21312157  0.06605991     0.21300
C1559       C  0.45125666  0.22422169  0.03685440    -0.20600
C1560       C  0.45400903  0.24341328  0.04736959    -0.11500
C1561       C  0.45570081  0.19430912  0.05181856    -0.15600
C1562       C  0.45100903  0.17809968  0.07679862    -0.29500
C1563       C  0.46734817  0.27355751  0.09704053    -0.03800
C1564       C  0.45576587  0.28145308  0.08407540    -0.40300
H1565       H  0.47272754  0.24743952  0.14720808     0.12500
H1566       H  0.46729881  0.21353130  0.12925962     0.12100
H1567       H  0.44592468  0.21822014  0.00541907     0.11500
H1568       H  0.45079583  0.25179075  0.02370146     0.11800
H1569       H  0.45983334  0.19393922  0.01924684     0.14500
H1570       H  0.44535510  0.17749411  0.10841204     0.13300
H1571       H  0.48067325  0.28275636  0.11694449     0.11000
H1572       H  0.44129655  0.27168130  0.06799366     0.13000
C1573       C  0.53014241  0.10633581  0.93239608     0.19100
C1574       C  0.54451359  0.10043394  0.94267721    -0.19000
C1575       C  0.55879321  0.10206725  0.91282932    -0.11300
C1576       C  0.55869140  0.10932126  0.87191340     0.21300
C1577       C  0.54328031  0.11365990  0.86075487    -0.20600
C1578       C  0.52923621  0.11234141  0.89073343    -0.11500
C1579       C  0.57481375  0.11316537  0.84076425    -0.15600
C1580       C  0.59449856  0.12056748  0.85235847    -0.29500
C1581       C  0.51693275  0.10716354  0.96580665    -0.03800
C1582       C  0.51313974  0.12268543  0.96719071    -0.40300
H1583       H  0.54526808  0.09540951  0.97433594     0.12500
H1584       H  0.57006757  0.09793052  0.92194431     0.12100
H1585       H  0.54262903  0.11889892  0.82924338     0.11500
H1586       H  0.51787978  0.11635701  0.88150051     0.11800
H1587       H  0.57081217  0.11176326  0.80744125     0.14500
H1588       H  0.59879571  0.12348678  0.88547465     0.13300
H1589       H  0.51182356  0.09607322  0.99127178     0.11000
H1590       H  0.51991619  0.13469412  0.94361898     0.13000
C1591       C  0.59784049  0.18437892  0.18470002     0.19100
C1592       C  0.57989900  0.18219047  0.20251410    -0.19000
C1593       C  0.56427279  0.18133625  0.17674244    -0.11300
C1594       C  0.56641598  0.18274039  0.13266443     0.21300
C1595       C  0.58515923  0.18697821  0.11538228    -0.20600
C1596       C  0.60080938  0.18803779  0.14109509    -0.11500
C1597       C  0.54840737  0.17540171  0.10394564    -0.15600
C1598       C  0.53107902  0.17553765  0.11262283    -0.29500
C1599       C  0.61177154  0.18018636  0.21119130    -0.03800
C1600       C  0.62134209  0.17082556  0.19500714    -0.40300
H1601       H  0.57727448  0.17952471  0.23603326     0.12500
H1602       H  0.54992711  0.17779745  0.19106402     0.12100
H1603       H  0.58723658  0.18821900  0.08153633     0.11500
H1604       H  0.61476070  0.19062099  0.12639899     0.11800
H1605       H  0.54865337  0.16744765  0.07565452     0.14500
H1606       H  0.53034806  0.18429838  0.13885016     0.13300
H1607       H  0.61136854  0.18152656  0.24522298     0.11000
H1608       H  0.62006983  0.16757368  0.16146878     0.13000
C1609       C  0.44543682  0.12416289  0.84448496     0.19100
C1610       C  0.45627984  0.11869230  0.81706550    -0.19000
C1611       C  0.45192009  0.11647637  0.77401204    -0.11300
C1612       C  0.43658726  0.11979691  0.75695638     0.21300
C1613       C  0.42560862  0.12525118  0.78429976    -0.20600
C1614       C  0.42983399  0.12722504  0.82788829    -0.11500
C1615       C  0.43345271  0.11933128  0.71042352    -0.15600
C1616       C  0.43639807  0.10660910  0.68590042    -0.29500
C1617       C  0.45233158  0.12812098  0.88920344    -0.03800
C1618       C  0.44054039  0.12638439  0.92228950    -0.40300
H1619       H  0.46853455  0.11649817  0.82893368     0.12500
H1620       H  0.46125016  0.11300659  0.75391845     0.12100
H1621       H  0.41395878  0.12821754  0.77185182     0.11500
H1622       H  0.42149267  0.13189309  0.84812817     0.11800
H1623       H  0.43018375  0.13046555  0.69619602     0.14500
H1624       H  0.43870944  0.09495554  0.70073424     0.13300
H1625       H  0.46802064  0.13183699  0.89528059     0.11000
H1626       H  0.42447797  0.12153060  0.91768376     0.13000
C1627       C  0.45789357  0.13709903  0.35000316     0.19100
C1628       C  0.44054899  0.12257890  0.32708293    -0.19000
C1629       C  0.44220120  0.11874063  0.28440379    -0.11300
C1630       C  0.46122109  0.12937365  0.26393253     0.21300
C1631       C  0.47834753  0.14382152  0.28697107    -0.20600
C1632       C  0.47668874  0.14770811  0.32920235    -0.11500
C1633       C  0.46438941  0.12612297  0.21901178    -0.15600
C1634       C  0.44948097  0.11653940  0.18978373    -0.29500
C1635       C  0.45773315  0.14142124  0.39575090    -0.03800
C1636       C  0.44283985  0.12942275  0.42282361    -0.40300
H1637       H  0.42571706  0.11416805  0.34170863     0.12500
H1638       H  0.42865500  0.10730533  0.26797930     0.12100
H1639       H  0.49318955  0.15224369  0.27218569     0.11500
H1640       H  0.49033398  0.15890321  0.34590931     0.11800
H1641       H  0.48020081  0.13310139  0.20889673     0.14500
H1642       H  0.43350676  0.10999506  0.19800471     0.13300
H1643       H  0.47168373  0.15422757  0.40860781     0.11000
H1644       H  0.42895735  0.11606585  0.41167257     0.13000
C1645       C  0.26113339  0.77906820  0.94476759     0.19100
C1646       C  0.25828829  0.75929991  0.94802241    -0.19000
C1647       C  0.23885192  0.74194029  0.94213928    -0.11300
C1648       C  0.22165082  0.74391222  0.93238608     0.21300
C1649       C  0.22464960  0.76372193  0.92836093    -0.20600
C1650       C  0.24405103  0.78103257  0.93420117    -0.11500
C1651       C  0.20044355  0.72604691  0.92560055    -0.15600
C1652       C  0.19559918  0.70629275  0.92592206    -0.29500
C1653       C  0.28203752  0.79721811  0.95213524    -0.03800
C1654       C  0.28509001  0.81569287  0.96350732    -0.40300
H1655       H  0.27113779  0.75725273  0.95570711     0.12500
H1656       H  0.23761383  0.72717722  0.94557681     0.12100
H1657       H  0.21188904  0.76586695  0.92037613     0.11500
H1658       H  0.24553728  0.79587841  0.92972687     0.11800
H1659       H  0.18829628  0.72937781  0.91887456     0.14500
H1660       H  0.20731449  0.70233413  0.93158408     0.13300
H1661       H  0.29517772  0.79509370  0.94991440     0.11000
H1662       H  0.27201684  0.81766937  0.96830034     0.13000
C1663       C  0.40983980  0.02398755  0.01273620     0.19100
C1664       C  0.39026755  0.01138595  0.99508246    -0.19000
C1665       C  0.38256505  0.99034176  0.98900703    -0.11300
C1666       C  0.39438747  0.98135785  0.00018939     0.21300
C1667       C  0.41408492  0.99406581  0.01707644    -0.20600
C1668       C  0.42172468  0.01500858  0.02326163    -0.11500
C1669       C  0.38736599  0.95916510  0.99337342    -0.15600
C1670       C  0.36775424  0.94438003  0.98625200    -0.29500
C1671       C  0.41775932  0.04645265  0.01839914    -0.03800
C1672       C  0.43241928  0.05788669  0.04702032    -0.40300
H1673       H  0.38086138  0.01784976  0.98599884     0.12500
H1674       H  0.36754383  0.98136450  0.97481452     0.12100
H1675       H  0.42372761  0.98776778  0.02539143     0.11500
H1676       H  0.43717839  0.02412714  0.03537735     0.11800
H1677       H  0.39897507  0.95473930  0.99509434     0.14500
H1678       H  0.35570384  0.94815797  0.98564679     0.13300
H1679       H  0.41121237  0.05363415  0.99901846     0.11000
H1680       H  0.43828007  0.05052906  0.06770825     0.13000
C1681       C  0.47086289  0.90548113  0.13475268     0.19100
C1682       C  0.45286927  0.90434280  0.14931760    -0.19000
C1683       C  0.43820163  0.90360773  0.12098079    -0.11300
C1684       C  0.44114225  0.90392950  0.07711076     0.21300
C1685       C  0.45976939  0.90651615  0.06257988    -0.20600
C1686       C  0.47448609  0.90727209  0.09099386    -0.11500
C1687       C  0.42483095  0.90081524  0.04597543    -0.15600
C1688       C  0.40483850  0.88990134  0.05557528    -0.29500
C1689       C  0.48484383  0.90380824  0.16608937    -0.03800
C1690       C  0.49733161  0.89663014  0.15611069    -0.40300
H1691       H  0.44982255  0.90335971  0.18279672     0.12500
H1692       H  0.42451168  0.90259563  0.13370930     0.12100
H1693       H  0.46266630  0.90726966  0.02906136     0.11500
H1694       H  0.48851596  0.90902143  0.07843894     0.11800
H1695       H  0.42920254  0.90594546  0.01372799     0.14500
H1696       H  0.40038984  0.88347858  0.08693474     0.13300
H1697       H  0.48315509  0.90640481  0.19910061     0.11000
H1698       H  0.49832009  0.89282382  0.12362321     0.13000
C1699       C  0.40520325  0.83560361  0.88579057     0.19100
C1700       C  0.42129752  0.83467755  0.90643951    -0.19000
C1701       C  0.43808569  0.83676316  0.88369627    -0.11300
C1702       C  0.43899127  0.83980980  0.83985658     0.21300
C1703       C  0.42211589  0.83888788  0.81891067    -0.20600
C1704       C  0.40526780  0.83648804  0.84143308    -0.11500
C1705       C  0.45838024  0.84775867  0.81631278    -0.15600
C1706       C  0.47294674  0.84281897  0.82357761    -0.29500
C1707       C  0.38993777  0.83783572  0.91140643    -0.03800
C1708       C  0.38050039  0.84778264  0.89678057    -0.40300
H1709       H  0.42156719  0.83374587  0.94050501     0.12500
H1710       H  0.45097116  0.83759645  0.90074160     0.12100
H1711       H  0.42239702  0.84101789  0.78506500     0.11500
H1712       H  0.39277982  0.83623774  0.82397846     0.11800
H1713       H  0.46098612  0.85885036  0.79170115     0.14500
H1714       H  0.47035849  0.83060561  0.84519252     0.13300
H1715       H  0.38875152  0.83397296  0.94468725     0.11000
H1716       H  0.38286249  0.85321189  0.86450274     0.13000
C1717       C  0.22330741  0.74484125  0.43251800     0.19100
C1718       C  0.22399274  0.76282894  0.44606410    -0.19000
C1719       C  0.24271632  0.78068235  0.45450557    -0.11300
C1720       C  0.26140489  0.78110758  0.44915375     0.21300
C1721       C  0.26070635  0.76311075  0.43551933    -0.20600
C1722       C  0.24198534  0.74525860  0.42712822    -0.11500
C1723       C  0.28187704  0.79961396  0.45821889    -0.15600
C1724       C  0.28514187  0.81867479  0.46473583    -0.29500
C1725       C  0.20290328  0.72629168  0.42333554    -0.03800
C1726       C  0.19967997  0.70708127  0.42140389    -0.40300
H1727       H  0.20991713  0.76303580  0.45050184     0.12500
H1728       H  0.24229558  0.79391727  0.46569161     0.12100
H1729       H  0.27476827  0.76288099  0.43101102     0.11500
H1730       H  0.24234832  0.73201259  0.41573563     0.11800
H1731       H  0.29501536  0.79741654  0.45907248     0.14500
H1732       H  0.27254309  0.82161746  0.46293420     0.13300
H1733       H  0.18986009  0.72850625  0.41927590     0.11000
H1734       H  0.21222339  0.70433192  0.42756539     0.13000
C1735       C  0.40741369  0.02169142  0.50296154     0.19100
C1736       C  0.41729911  0.01171056  0.48672217    -0.19000
C1737       C  0.40645890  0.99074803  0.47802055    -0.11300
C1738       C  0.38531327  0.97901307  0.48569349     0.21300
C1739       C  0.37523115  0.98902141  0.50068926    -0.20600
C1740       C  0.38612569  0.01009220  0.50950451    -0.11500
C1741       C  0.37349933  0.95644023  0.47815686    -0.15600
C1742       C  0.38225653  0.94476030  0.48084882    -0.29500
C1743       C  0.42028102  0.04394572  0.51335843    -0.03800
C1744       C  0.41354564  0.05614265  0.52870226    -0.40300
H1745       H  0.43361276  0.02017149  0.48087834     0.12500
H1746       H  0.41473463  0.98387955  0.46494648     0.12100
H1747       H  0.35891957  0.98041747  0.50644470     0.11500
H1748       H  0.37778889  0.01702384  0.52182715     0.11800
H1749       H  0.35714008  0.94918942  0.47203932     0.14500
H1750       H  0.39834021  0.95177905  0.48939125     0.13300
H1751       H  0.43665093  0.05065245  0.50871417     0.11000
H1752       H  0.39737750  0.05034415  0.53348967     0.13000
C1753       C  0.43824695  0.88796294  0.57917588     0.19100
C1754       C  0.45885904  0.90356254  0.58162327    -0.19000
C1755       C  0.47251126  0.90174502  0.60923620    -0.11300
C1756       C  0.46571356  0.88402865  0.63396588     0.21300
C1757       C  0.44529359  0.86824233  0.63016169    -0.20600
C1758       C  0.43171570  0.87017800  0.60327354    -0.11500
C1759       C  0.47923420  0.88059566  0.66280787    -0.15600
C1760       C  0.49672873  0.89531613  0.68064001    -0.29500
C1761       C  0.42357963  0.88972015  0.55053271    -0.03800
C1762       C  0.40410962  0.88267156  0.56231863    -0.40300
H1763       H  0.46429348  0.91722009  0.56261514     0.12500
H1764       H  0.48831348  0.91395973  0.61055683     0.12100
H1765       H  0.43974641  0.85429368  0.64827514     0.11500
H1766       H  0.41610743  0.85757324  0.60090512     0.11800
H1767       H  0.47371663  0.86477534  0.67160397     0.14500
H1768       H  0.50225622  0.91136120  0.67441329     0.13300
H1769       H  0.42857690  0.89603475  0.51921610     0.11000
H1770       H  0.39969235  0.87737771  0.59447446     0.13000
C1771       C  0.33550579  0.88455814  0.76894339     0.19100
C1772       C  0.34668085  0.89903962  0.73785503    -0.19000
C1773       C  0.34254880  0.89408903  0.69510741    -0.11300
C1774       C  0.32727319  0.87435208  0.68250045     0.21300
C1775       C  0.31605172  0.85984786  0.71358533    -0.20600
C1776       C  0.32000829  0.86489403  0.75640586    -0.11500
C1777       C  0.32446022  0.86789766  0.63759421    -0.15600
C1778       C  0.32884752  0.88104754  0.60544236    -0.29500
C1779       C  0.34159267  0.88985789  0.81387033    -0.03800
C1780       C  0.32844285  0.88133024  0.84587187    -0.40300
H1781       H  0.35891777  0.91415071  0.74670428     0.12500
H1782       H  0.35202158  0.90546959  0.67214001     0.12100
H1783       H  0.30449757  0.84443854  0.70469513     0.11500
H1784       H  0.31152521  0.85312116  0.77949682     0.11800
H1785       H  0.31949250  0.85199084  0.63089855     0.14500
H1786       H  0.33269899  0.89668839  0.61164935     0.13300
H1787       H  0.35751121  0.90102293  0.82074046     0.11000
H1788       H  0.31233709  0.87082133  0.83926833     0.13000
C1789       C  0.34029970  0.88942665  0.17831530     0.19100
C1790       C  0.33241713  0.89795141  0.20634471    -0.19000
C1791       C  0.33621355  0.89822129  0.24980086    -0.11300
C1792       C  0.34845566  0.89048939  0.26554793     0.21300
C1793       C  0.35713761  0.88294083  0.23722748    -0.20600
C1794       C  0.35296158  0.88222225  0.19411456    -0.11500
C1795       C  0.35292332  0.89056043  0.31114905    -0.15600
C1796       C  0.33880040  0.88616390  0.34094343    -0.29500
C1797       C  0.33554257  0.88809906  0.13253749    -0.03800
C1798       C  0.33089149  0.87103580  0.11097668    -0.40300
H1799       H  0.32294319  0.90392968  0.19471947     0.12500
H1800       H  0.32979976  0.90465331  0.27097820     0.12100
H1801       H  0.36687900  0.87721957  0.24860588     0.11500
H1802       H  0.35973917  0.87612588  0.17300270     0.11800
H1803       H  0.36783337  0.89282494  0.32022791     0.14500
H1804       H  0.32332960  0.88219214  0.33188971     0.13300
H1805       H  0.33654772  0.90127841  0.11650853     0.11000
H1806       H  0.32922650  0.85783387  0.12816535     0.13000
C1807       C  0.44090329  0.84125817  0.34301029     0.19100
C1808       C  0.43573478  0.83866484  0.38585949    -0.19000
C1809       C  0.41772734  0.83774575  0.39939839    -0.11300
C1810       C  0.40462219  0.83965684  0.37021737     0.21300
C1811       C  0.40937843  0.84139443  0.32722627    -0.20600
C1812       C  0.42722954  0.84206204  0.31365586    -0.11500
C1813       C  0.38813533  0.84350893  0.38389680    -0.15600
C1814       C  0.37879841  0.83777042  0.42148651    -0.29500
C1815       C  0.46192219  0.84650725  0.33078268    -0.03800
C1816       C  0.46690701  0.84416287  0.29142311    -0.40300
H1817       H  0.44615691  0.83834235  0.40915634     0.12500
H1818       H  0.41492675  0.83700086  0.43291156     0.12100
H1819       H  0.39975140  0.84326985  0.30421983     0.11500
H1820       H  0.43092457  0.84468258  0.28052785     0.11800
H1821       H  0.38496478  0.85318588  0.36349827     0.14500
H1822       H  0.38109753  0.82745585  0.44162895     0.13300
H1823       H  0.47400683  0.85419451  0.35427734     0.11000
H1824       H  0.45496889  0.83555225  0.26820645     0.13000
loop_ 
_geom_bond_atom_site_label_1 
_geom_bond_atom_site_label_2 
_geom_bond_distance 
_geom_bond_site_symmetry_2 
_ccdc_geom_bond_type 
O1          Cr19   1.974       .  S
O1            C9   1.260       .  A
O2          Cr19   2.027       .  S
O2            C3   1.271       .  A
C3            O4   1.262       .  A
C3         C1724   1.487       .  S
O4          Cr20   1.980       .  S
O5          Cr20   2.022       .  S
O5            C6   1.267       .  A
C6            O7   1.258       .  A
C6         C1814   1.479       .  S
O7          Cr21   1.968       .  S
O8          Cr21   2.011       .  S
O8            C9   1.268       .  A
C9         C1796   1.476       .  S
O10         Cr19   2.029       .  S
O10          C18   1.269       .  A
O11         Cr19   1.972       .  S
O11          C12   1.257       .  A
C12          O13   1.268       .  A
C12        C1778   1.475       .  S
O13         Cr20   2.016       .  S
O14         Cr20   1.972       .  S
O14          C15   1.259       .  A
C15          O16   1.267       .  A
C15        C1762   1.473       .  S
O16         Cr21   2.018       .  S
O17         Cr21   1.968       .  S
O17          C18   1.257       .  A
C18        C1742   1.481       .  S
Cr19         O22   1.774       .  S
Cr20         O22   1.773       .  S
Cr21         O22   1.767       .  S
O23         Cr41   1.970       .  S
O23          C31   1.262       .  A
O24         Cr41   2.011       .  S
O24          C25   1.266       .  A
C25          O26   1.265       .  A
C25        C1654   1.483       .  S
O26         Cr42   1.998   1_556  S
O27         Cr42   2.021   1_556  S
O27          C28   1.265       .  A
C28          O29   1.255       .  A
C28        C1708   1.480       .  S
O29         Cr43   1.972       .  S
O30         Cr43   2.022       .  S
O30          C31   1.274       .  A
C31        C1780   1.478       .  S
O32         Cr41   2.013       .  S
O32          C40   1.262       .  A
O33         Cr41   1.991   1_554  S
O33          C34   1.265       .  A
C34          O35   1.266       .  A
C34        C1798   1.473       .  S
O35         Cr42   2.007       .  S
O36         Cr42   1.962       .  S
O36          C37   1.258       .  A
C37          O38   1.272   1_554  A
C37        C1688   1.478       .  S
O38         Cr43   2.030       .  S
O39         Cr43   1.991       .  S
O39          C40   1.259       .  A
C40        C1670   1.490       .  S
Cr41         O44   1.774       .  S
Cr42         O44   1.775   1_554  S
Cr43         O44   1.772       .  S
O45         Cr63   2.019       .  S
O45          C53   1.269       .  A
O46         Cr63   1.997       .  S
O46          C47   1.261       .  A
C47          O48   1.263       .  A
C47        C1562   1.484       .  S
O48         Cr64   2.002       .  S
O49         Cr64   2.001       .  S
O49          C50   1.261       .  A
C50          O51   1.262       .  A
C50        C1598   1.477       .  S
O51         Cr65   2.000       .  S
O52         Cr65   1.975       .  S
O52          C53   1.264       .  A
C53        C1634   1.482       .  S
O54         Cr63   2.010       .  S
O54          C62   1.264       .  A
O55         Cr63   2.023   1_556  S
O55          C56   1.268       .  A
C56          O57   1.260       .  A
C56        C1618   1.484       .  S
O57         Cr64   1.966   1_556  S
O58         Cr64   2.004       .  S
O58          C59   1.267       .  A
C59          O60   1.266       .  A
C59        C1582   1.475   1_554  S
O60         Cr65   1.989       .  S
O61         Cr65   1.999       .  S
O61          C62   1.261       .  A
C62        C1672   1.486       .  S
Cr63         O66   1.778       .  S
Cr64         O66   1.772       .  S
Cr65         O66   1.771       .  S
O67         Cr85   1.996       .  S
O67          C75   1.265       .  A
O68         Cr85   2.044       .  S
O68          C69   1.272       .  A
C69          O70   1.257       .  A
C69        C1508   1.489       .  S
O70         Cr86   1.969       .  S
O71         Cr86   2.016       .  S
O71          C72   1.268       .  A
C72          O73   1.259       .  A
C72        C1544   1.475       .  S
O73         Cr87   1.971       .  S
O74         Cr87   2.002       .  S
O74          C75   1.264       .  A
C75        C1616   1.475       .  S
O76         Cr85   2.040       .  S
O76          C84   1.273       .  A
O77         Cr85   1.982       .  S
O77          C78   1.261       .  A
C78          O79   1.268       .  A
C78        C1636   1.481       .  S
O79         Cr86   2.006       .  S
O80         Cr86   1.971       .  S
O80          C81   1.258       .  A
C81          O82   1.263       .  A
C81        C1526   1.474       .  S
O82         Cr87   2.007       .  S
O83         Cr87   1.966       .  S
O83          C84   1.258       .  A
C84        C1744   1.489       .  S
Cr85         O88   1.777       .  S
Cr86         O88   1.769       .  S
Cr87         O88   1.766       .  S
O89        Cr107   1.997       .  S
O89          C97   1.264       .  A
O90        Cr107   2.017       .  S
O90          C91   1.268       .  A
C91          O92   1.261       .  A
C91        C1438   1.482       .  S
O92        Cr108   1.978       .  S
O93        Cr108   2.033       .  S
O93          C94   1.269       .  A
C94          O95   1.257       .  A
C94        C1600   1.477       .  S
O95        Cr109   1.968       .  S
O96        Cr109   2.008       .  S
O96          C97   1.266       .  A
C97        C1472   1.482       .  S
O98        Cr107   2.038       .  S
O98         C106   1.271       .  A
O99        Cr107   1.988       .  S
O99         C100   1.264       .  A
C100        O101   1.270       .  A
C100       C1490   1.486       .  S
O101       Cr108   2.014       .  S
O102       Cr108   1.967       .  S
O102        C103   1.255       .  A
C103        O104   1.266       .  A
C103       C1528   1.473       .  S
O104       Cr109   2.016       .  S
O105       Cr109   1.971       .  S
O105        C106   1.258       .  A
C106       C1454   1.484       .  S
Cr107       O110   1.779       .  S
Cr108       O110   1.776       .  S
Cr109       O110   1.765       .  S
O111       Cr129   2.000       .  S
O111        C119   1.263       .  A
O112       Cr129   2.018       .  S
O112        C113   1.269       .  A
C113        O114   1.263       .  A
C113       C1402   1.487       .  S
O114       Cr130   1.988       .  S
O115       Cr130   2.028       .  S
O115        C116   1.269       .  A
C116        O117   1.256       .  A
C116       C1546   1.472       .  S
O117       Cr131   1.964       .  S
O118       Cr131   2.006       .  S
O118        C119   1.264       .  A
C119       C1492   1.483       .  S
O120       Cr129   2.038       .  S
O120        C128   1.272       .  A
O121       Cr129   1.992       .  S
O121        C122   1.264       .  A
C122        O123   1.268       .  A
C122       C1474   1.487       .  S
O123       Cr130   2.008       .  S
O124       Cr130   1.979       .  S
O124        C125   1.258       .  A
C125        O126   1.266       .  A
C125       C1580   1.480       .  S
O126       Cr131   2.019       .  S
O127       Cr131   1.969       .  S
O127        C128   1.258       .  A
C128       C1420   1.483       .  S
Cr129       O132   1.776       .  S
Cr130       O132   1.776       .  S
Cr131       O132   1.768       .  S
O133       Cr151   1.971       .  S
O133        C141   1.259       .  A
O134       Cr151   2.026       .  S
O134        C135   1.269       .  A
C135        O136   1.261       .  A
C135       C1346   1.487       .  S
O136       Cr152   1.984       .  S
O137       Cr152   2.011       .  S
O137        C138   1.263       .  A
C138        O139   1.258       .  A
C138       C1816   1.478       .  S
O139       Cr153   1.977       .  S
O140       Cr153   2.031       .  S
O140        C141   1.271       .  A
C141       C1364   1.479       .  S
O142       Cr151   2.024       .  S
O142        C150   1.268       .  A
O143       Cr151   1.983       .  S
O143        C144   1.261       .  A
C144        O145   1.268       .  A
C144       C1382   1.481       .  S
O145       Cr152   2.014       .  S
O146       Cr152   1.969       .  S
O146        C147   1.260       .  A
C147        O148   1.273       .  A
C147       C1690   1.481       .  S
O148       Cr153   2.034       .  S
O149       Cr153   1.981       .  S
O149        C150   1.260       .  A
C150       C1456   1.490       .  S
Cr151       O154   1.770       .  S
Cr152       O154   1.772       .  S
Cr153       O154   1.774       .  S
O155       Cr173   2.037       .  S
O155        C163   1.277       .  A
O156       Cr173   1.986       .  S
O156        C157   1.258       .  A
C157        O158   1.262       .  A
C157       C1328   1.486       .  S
O158       Cr174   1.998       .  S
O159       Cr174   2.001       .  S
O159        C160   1.259       .  A
C160        O161   1.261       .  A
C160       C1706   1.480       .  S
O161       Cr175   2.002       .  S
O162       Cr175   1.956       .  S
O162        C163   1.262       .  A
C163       C1384   1.472       .  S
O164       Cr173   1.990       .  S
O164        C172   1.254       .  A
O165       Cr173   2.022       .  S
O165        C166   1.271       .  A
C166        O167   1.260       .  A
C166       C1366   1.486       .  S
O167       Cr174   1.963       .  S
O168       Cr174   2.008       .  S
O168        C169   1.272       .  A
C169        O170   1.265       .  A
C169       C1760   1.480       .  S
O170       Cr175   1.986       .  S
O171       Cr175   2.001       .  S
O171        C172   1.258       .  A
C172       C1418   1.485       .  S
Cr173       O176   1.779       .  S
Cr174       O176   1.773       .  S
Cr175       O176   1.776       .  S
O177       Cr195   1.990       .  S
O177        C185   1.263       .  A
O178       Cr195   2.027       .  S
O178        C179   1.268       .  A
C179        O180   1.259       .  A
C179       C1220   1.488       .  S
O180       Cr196   1.980       .  S
O181       Cr196   2.029       .  S
O181        C182   1.270       .  A
C182        O183   1.260       .  A
C182       C1256   1.481       .  S
O183       Cr197   1.974       .  S
O184       Cr197   2.002       .  S
O184        C185   1.264       .  A
C185       C1274   1.471       .  S
O186       Cr195   2.028       .  S
O186        C194   1.269       .  A
O187       Cr195   1.973       .  S
O187        C188   1.260       .  A
C188        O189   1.271       .  A
C188       C1292   1.478       .  S
O189       Cr196   2.021       .  S
O190       Cr196   1.975       .  S
O190        C191   1.259       .  A
C191        O192   1.263       .  A
C191       C1312   1.474       .  S
O192       Cr197   2.006       .  S
O193       Cr197   1.976       .  S
O193        C194   1.261       .  A
C194       C1240   1.487       .  S
Cr195       O198   1.777       .  S
Cr196       O198   1.772       .  S
Cr197       O198   1.767       .  S
O199       Cr217   2.019       .  S
O199        C207   1.271       .  A
O200       Cr217   1.977       .  S
O200        C201   1.258       .  A
C201        O202   1.269       .  A
C201       C1148   1.483       .  S
O202       Cr218   2.028       .  S
O203       Cr218   1.999       .  S
O203        C204   1.261       .  A
C204        O205   1.262       .  A
C204       C1184   1.482       .  S
O205       Cr219   1.993       .  S
O206       Cr219   1.970       .  S
O206        C207   1.263       .  A
C207       C1294   1.477   1_556  S
O208       Cr217   1.998       .  S
O208        C216   1.259       .  A
O209       Cr217   2.017       .  S
O209        C210   1.266       .  A
C210        O211   1.258       .  A
C210       C1276   1.483       .  S
O211       Cr218   1.961       .  S
O212       Cr218   2.022       .  S
O212        C213   1.274       .  A
C213        O214   1.263       .  A
C213       C1202   1.477       .  S
O214       Cr219   1.978       .  S
O215       Cr219   2.003       .  S
O215        C216   1.260       .  A
C216       C1166   1.489       .  S
Cr217       O220   1.774       .  S
Cr218       O220   1.777       .  S
Cr219       O220   1.776       .  S
O221       Cr239   1.988       .  S
O221        C229   1.261       .  A
O222       Cr239   2.014       .  S
O222        C223   1.268       .  A
C223        O224   1.265       .  A
C223       C1564   1.480       .  S
O224       Cr240   1.989       .  S
O225       Cr240   2.016       .  S
O225        C226   1.265       .  A
C226        O227   1.259       .  A
C226       C1186   1.480       .  S
O227       Cr241   1.971       .  S
O228       Cr241   2.004       .  S
O228        C229   1.267       .  A
C229       C1114   1.485   1_554  S
O230       Cr239   2.035       .  S
O230        C238   1.269       .  A
O231       Cr239   1.997       .  S
O231        C232   1.265       .  A
C232        O233   1.264       .  A
C232       C1130   1.476       .  S
O233       Cr240   1.999       .  S
O234       Cr240   1.988       .  S
O234        C235   1.264       .  A
C235        O236   1.263       .  A
C235       C1310   1.474       .  S
O236       Cr241   2.000       .  S
O237       Cr241   1.969       .  S
O237        C238   1.255       .  A
C238       C1094   1.484       .  S
Cr239       O242   1.778       .  S
Cr240       O242   1.778       .  S
Cr241       O242   1.768       .  S
O243       Cr261   2.042       .  S
O243        C251   1.278       .  A
O244       Cr261   1.990       .  S
O244        C245   1.259       .  A
C245        O246   1.261       .  A
C245       C1510   1.488       .  S
O246       Cr262   1.998       .  S
O247       Cr262   2.001       .  S
O247        C248   1.261       .  A
C248        O249   1.262       .  A
C248       C1258   1.478       .  S
O249       Cr263   2.000       .  S
O250       Cr263   1.953       .  S
O250        C251   1.263       .  A
C251       C1132   1.486       .  S
O252       Cr261   1.988       .  S
O252        C260   1.253       .  A
O253       Cr261   2.029       .  S
O253        C254   1.272       .  A
C254        O255   1.258       .  A
C254       C1112   1.479       .  S
O255       Cr262   1.957       .  S
O256       Cr262   2.003       .  S
O256        C257   1.268       .  A
C257        O258   1.267       .  A
C257       C1204   1.469       .  S
O258       Cr263   1.990       .  S
O259       Cr263   2.007       .  S
O259        C260   1.257       .  A
C260       C1078   1.479       .  S
Cr261       O264   1.778       .  S
Cr262       O264   1.775       .  S
Cr263       O264   1.780       .  S
O265       Cr283   2.045       .  S
O265        C273   1.277       .  A
O266       Cr283   1.987       .  S
O266        C267   1.261       .  A
C267        O268   1.267       .  A
C267       C1348   1.490       .  S
O268       Cr284   2.013       .  S
O269       Cr284   1.985       .  S
O269        C270   1.255       .  A
C270        O271   1.258       .  A
C270       C1058   1.470       .  S
O271       Cr285   1.984       .  S
O272       Cr285   1.964       .  S
O272        C273   1.262       .  A
C273       C1022   1.493       .  S
O274       Cr283   2.006       .  S
O274        C282   1.260       .  A
O275       Cr283   2.028       .  S
O275        C276   1.270       .  A
C276        O277   1.255       .  A
C276       C1006   1.476       .  S
O277       Cr284   1.957       .  S
O278       Cr284   2.024       .  S
O278        C279   1.274       .  A
C279        O280   1.264       .  A
C279       C1040   1.481       .  S
O280       Cr285   1.978       .  S
O281       Cr285   1.992       .  S
O281        C282   1.257       .  A
C282       C1238   1.482       .  S
Cr283       O286   1.783       .  S
Cr284       O286   1.783       .  S
Cr285       O286   1.776       .  S
O287       Cr305   2.006       .  S
O287        C295   1.265       .  A
O288       Cr305   2.032       .  S
O288        C289   1.270       .  A
C289        O290   1.257       .  A
C289       C1330   1.484       .  S
O290       Cr306   1.970       .  S
O291       Cr306   2.010       .  S
O291        C292   1.268       .  A
C292        O293   1.261       .  A
C292        C988   1.474       .  S
O293       Cr307   1.977       .  S
O294       Cr307   2.000       .  S
O294        C295   1.262       .  A
C295       C1004   1.482       .  S
O296       Cr305   2.038       .  S
O296        C304   1.273       .  A
O297       Cr305   1.992       .  S
O297        C298   1.263       .  A
C298        O299   1.268       .  A
C298       C1024   1.490       .  S
O299       Cr306   2.011       .  S
O300       Cr306   1.983       .  S
O300        C301   1.260       .  A
C301        O302   1.261       .  A
C301        C968   1.474       .  S
O302       Cr307   2.000       .  S
O303       Cr307   1.970       .  S
O303        C304   1.259       .  A
C304       C1168   1.483       .  S
Cr305       O308   1.777       .  S
Cr306       O308   1.773       .  S
Cr307       O308   1.768       .  S
O309       Cr327   1.956       .  S
O309        C317   1.255       .  A
O310       Cr327   2.034       .  S
O310        C311   1.270       .  A
C311        O312   1.258       .  A
C311        C916   1.481       .  S
O312       Cr328   1.968       .  S
O313       Cr328   1.995       .  S
O313        C314   1.261       .  A
C314        O315   1.263       .  A
C314       C1060   1.474       .  S
O315       Cr329   1.989       .  S
O316       Cr329   2.007       .  S
O316        C317   1.268       .  A
C317        C952   1.461       .  S
O318       Cr327   2.021       .  S
O318        C326   1.267       .  A
O319       Cr327   1.964       .  S
O319        C320   1.254       .  A
C320        O321   1.265       .  A
C320        C932   1.462   1_554  S
O321       Cr328   1.996       .  S
O322       Cr328   1.977       .  S
O322        C323   1.263       .  A
C323        O324   1.267       .  A
C323        C970   1.475       .  S
O324       Cr329   2.009       .  S
O325       Cr329   1.982       .  S
O325        C326   1.261       .  A
C326       C1096   1.488       .  S
Cr327       O330   1.777       .  S
Cr328       O330   1.767       .  S
Cr329       O330   1.769       .  S
O331       Cr349   1.955       .  S
O331        C339   1.253       .  A
O332       Cr349   2.024       .  S
O332        C333   1.269       .  A
C333        O334   1.260       .  A
C333        C898   1.481       .  S
O334       Cr350   1.974       .  S
O335       Cr350   2.007       .  S
O335        C336   1.265       .  A
C336        O337   1.259       .  A
C336        C986   1.475       .  S
O337       Cr351   1.979       .  S
O338       Cr351   2.003       .  S
O338        C339   1.266       .  A
C339        C934   1.459       .  S
O340       Cr349   2.022       .  S
O340        C348   1.268       .  A
O341       Cr349   1.957       .  S
O341        C342   1.254       .  A
C342        O343   1.266       .  A
C342        C950   1.461       .  S
O343       Cr350   2.004       .  S
O344       Cr350   1.984       .  S
O344        C345   1.263       .  A
C345        O346   1.266       .  A
C345       C1042   1.477       .  S
O346       Cr351   2.011       .  S
O347       Cr351   1.971       .  S
O347        C348   1.260       .  A
C348       C1076   1.482       .  S
Cr349       O352   1.775       .  S
Cr350       O352   1.768       .  S
Cr351       O352   1.768       .  S
O353       Cr371   1.989       .  S
O353        C361   1.263       .  A
O354       Cr371   2.018       .  S
O354        C355   1.268       .  A
C355        O356   1.263       .  A
C355        C914   1.484       .  S
O356       Cr372   1.982       .  S
O357       Cr372   1.997       .  S
O357        C358   1.261       .  A
C358        O359   1.260       .  A
C358        C824   1.473       .  S
O359       Cr373   1.979       .  S
O360       Cr373   2.006       .  S
O360        C361   1.267       .  A
C361        C860   1.486       .  S
O362       Cr371   2.017       .  S
O362        C370   1.265       .  A
O363       Cr371   2.003       .  S
O363        C364   1.265       .  A
C364        O365   1.262       .  A
C364        C880   1.479       .  S
O365       Cr372   2.002       .  S
O366       Cr372   1.984       .  S
O366        C367   1.265       .  A
C367        O368   1.265       .  A
C367        C842   1.473       .  S
O368       Cr373   1.999       .  S
O369       Cr373   1.977       .  S
O369        C370   1.258       .  A
C370        C808   1.484       .  S
Cr371       O374   1.775       .  S
Cr372       O374   1.775       .  S
Cr373       O374   1.773       .  S
O375       Cr393   2.034       .  S
O375        C383   1.273       .  A
O376       Cr393   1.978       .  S
O376        C377   1.259       .  A
C377        O378   1.267       .  A
C377        C896   1.483       .  S
O378       Cr394   2.012       .  S
O379       Cr394   1.985       .  S
O379        C380   1.262       .  A
C380        O381   1.264       .  A
C380        C770   1.471       .  S
O381       Cr395   2.002       .  S
O382       Cr395   1.958       .  S
O382        C383   1.259       .  A
C383        C878   1.481       .  S
O384       Cr393   1.986       .  S
O384        C392   1.256       .  A
O385       Cr393   2.028       .  S
O385        C386   1.269       .  A
C386        O387   1.257       .  A
C386        C862   1.480       .  S
O387       Cr394   1.964       .  S
O388       Cr394   2.001       .  S
O388        C389   1.267       .  A
C389        O390   1.260       .  A
C389        C788   1.475       .  S
O390       Cr395   1.982       .  S
O391       Cr395   2.009       .  S
O391        C392   1.262       .  A
C392        C754   1.480       .  S
Cr393       O396   1.779       .  S
Cr394       O396   1.777       .  S
Cr395       O396   1.777       .  S
O397       Cr415   1.972       .  S
O397        C405   1.257       .  A
O398       Cr415   2.028       .  S
O398        C399   1.271       .  A
C399        O400   1.261       .  A
C399       C1726   1.486       .  S
O400       Cr416   1.978       .  S
O401       Cr416   2.011       .  S
O401        C402   1.266       .  A
C402        O403   1.259       .  A
C402        C772   1.479       .  S
O403       Cr417   1.979       .  S
O404       Cr417   2.010       .  S
O404        C405   1.266       .  A
C405        C716   1.475       .  S
O406       Cr415   2.043       .  S
O406        C414   1.272       .  A
O407       Cr415   1.979       .  S
O407        C408   1.260       .  A
C408        O409   1.266       .  A
C408        C734   1.476       .  S
O409       Cr416   2.005       .  S
O410       Cr416   1.981       .  S
O410        C411   1.262       .  A
C411        O412   1.265       .  A
C411        C844   1.475       .  S
O412       Cr417   2.008       .  S
O413       Cr417   1.964       .  S
O413        C414   1.257       .  A
C414        C698   1.484       .  S
Cr415       O418   1.779       .  S
Cr416       O418   1.773       .  S
Cr417       O418   1.770       .  S
O419       Cr437   1.989       .  S
O419        C427   1.263   1_556  A
O420       Cr437   2.035       .  S
O420        C421   1.272       .  A
C421        O422   1.259       .  A
C421       C1652   1.485       .  S
O422       Cr438   1.972       .  S
O423       Cr438   2.014       .  S
O423        C424   1.266       .  A
C424        O425   1.260       .  A
C424        C826   1.472       .  S
O425       Cr439   1.969       .  S
O426       Cr439   1.998       .  S
O426        C427   1.263   1_556  A
C427        C736   1.472       .  S
O428       Cr437   2.033       .  S
O428        C436   1.271       .  A
O429       Cr437   1.980       .  S
O429        C430   1.260       .  A
C430        O431   1.266       .  A
C430        C718   1.475       .  S
O431       Cr438   2.004       .  S
O432       Cr438   1.978       .  S
O432        C433   1.261       .  A
C433        O434   1.263       .  A
C433        C790   1.471       .  S
O434       Cr439   2.002       .  S
O435       Cr439   1.961       .  S
O435        C436   1.255       .  A
C436        C680   1.474       .  S
Cr437       O440   1.774       .  S
Cr438       O440   1.766       .  S
Cr439       O440   1.761       .  S
O441       Cr459   1.962       .  S
O441        C449   1.258       .  A
O442       Cr459   2.025       .  S
O442        C443   1.270       .  A
C443        O444   1.264       .  A
C443       C1222   1.489       .  S
O444       Cr460   1.988       .  S
O445       Cr460   2.026       .  S
O445        C446   1.266       .  A
C446        O447   1.254       .  A
C446        C664   1.475       .  S
O447       Cr461   1.966       .  S
O448       Cr461   2.019       .  S
O448        C449   1.270       .  A
C449        C628   1.469       .  S
O450       Cr459   2.023       .  S
O450        C458   1.267       .  A
O451       Cr459   1.975       .  S
O451        C452   1.259       .  A
C452        O453   1.267       .  A
C452        C610   1.470       .  S
O453       Cr460   2.002       .  S
O454       Cr460   1.966       .  S
O454        C455   1.258       .  A
C455        O456   1.273       .  A
C455        C644   1.480       .  S
O456       Cr461   2.038       .  S
O457       Cr461   1.979       .  S
O457        C458   1.260       .  A
C458        C700   1.489       .  S
Cr459       O462   1.771       .  S
Cr460       O462   1.772       .  S
Cr461       O462   1.771       .  S
O463       Cr481   2.006       .  S
O463        C471   1.265       .  A
O464       Cr481   1.998       .  S
O464        C465   1.262       .  A
C465        O466   1.263       .  A
C465       C1150   1.490       .  S
O466       Cr482   2.001       .  S
O467       Cr482   1.989       .  S
O467        C468   1.259       .  A
C468        O469   1.263       .  A
C468        C592   1.471       .  S
O469       Cr483   2.001       .  S
O470       Cr483   1.966       .  S
O470        C471   1.263       .  A
C471        C608   1.467       .  S
O472       Cr481   1.988       .  S
O472        C480   1.259       .  A
O473       Cr481   2.006       .  S
O473        C474   1.265   1_556  A
C474        O475   1.259       .  A
C474        C626   1.471       .  S
O475       Cr482   1.958   1_554  S
O476       Cr482   2.000       .  S
O476        C477   1.268       .  A
C477        O478   1.264       .  A
C477        C572   1.481       .  S
O478       Cr483   1.990       .  S
O479       Cr483   2.000       .  S
O479        C480   1.263       .  A
C480        C682   1.480       .  S
Cr481       O484   1.776       .  S
Cr482       O484   1.767       .  S
Cr483       O484   1.772       .  S
O485       Cr503   2.023       .  S
O485        C493   1.270       .  A
O486       Cr503   1.986       .  S
O486        C487   1.263       .  A
C487        O488   1.265       .  A
C487       C1436   1.481       .  S
O488       Cr504   2.005       .  S
O489       Cr504   2.000       .  S
O489        C490   1.261       .  A
C490        O491   1.260       .  A
C490        C662   1.475       .  S
O491       Cr505   1.994       .  S
O492       Cr505   1.971       .  S
O492        C493   1.264       .  A
C493        C554   1.479       .  S
O494       Cr503   2.001       .  S
O494        C502   1.261       .  A
O495       Cr503   2.014       .  S
O495        C496   1.265       .  A
C496        O497   1.261       .  A
C496        C536   1.484       .  S
O497       Cr504   1.977       .  S
O498       Cr504   2.008       .  S
O498        C499   1.271       .  A
C499        O500   1.263       .  A
C499        C574   1.479       .  S
O500       Cr505   1.985       .  S
O501       Cr505   1.990       .  S
O501        C502   1.258       .  A
C502        C806   1.473       .  S
Cr503       O506   1.777       .  S
Cr504       O506   1.768       .  S
Cr505       O506   1.771       .  S
O507       Cr525   1.987       .  S
O507        C515   1.263       .  A
O508       Cr525   2.021       .  S
O508        C509   1.268       .  A
C509        O510   1.260       .  A
C509       C1400   1.487       .  S
O510       Cr526   1.985       .  S
O511       Cr526   2.019       .  S
O511        C512   1.266       .  A
C512        O513   1.253       .  A
C512        C590   1.470       .  S
O513       Cr527   1.958       .  S
O514       Cr527   2.010       .  S
O514        C515   1.267       .  A
C515        C538   1.477       .  S
O516       Cr525   2.023       .  S
O516        C524   1.267       .  A
O517       Cr525   1.987       .  S
O517        C518   1.264       .  A
C518        O519   1.267       .  A
C518        C556   1.471       .  S
O519       Cr526   2.007       .  S
O520       Cr526   1.975       .  S
O520        C521   1.259       .  A
C521        O522   1.270       .  A
C521        C646   1.484       .  S
O522       Cr527   2.026       .  S
O523       Cr527   1.971       .  S
O523        C524   1.258       .  A
C524        C752   1.481       .  S
Cr525       O528   1.772       .  S
Cr526       O528   1.771       .  S
Cr527       O528   1.770       .  S
C529        C537   1.491       .  S
C529        C530   1.407       .  A
C529        C534   1.406       .  A
C530        C531   1.407       .  A
C530        H539   1.083       .  S
C531        C532   1.409       .  A
C531        H540   1.082       .  S
C532        C535   1.488   1_556  S
C532        C533   1.401       .  A
C533        C534   1.394       .  A
C533        H541   1.084       .  S
C534        H542   1.082       .  S
C535        H543   1.087       .  S
C535        C536   1.347       .  D
C536        H544   1.085       .  S
C537        H545   1.087       .  S
C537        C538   1.349       .  D
C538        H546   1.086       .  S
C547        C555   1.487       .  S
C547        C548   1.404       .  A
C547        C552   1.407       .  A
C548        C549   1.404       .  A
C548        H557   1.083       .  S
C549        C550   1.409       .  A
C549        H558   1.081       .  S
C550        C553   1.484       .  S
C550        C551   1.400       .  A
C551        C552   1.392       .  A
C551        H559   1.084       .  S
C552        H560   1.082       .  S
C553        H561   1.087       .  S
C553        C554   1.345       .  D
C554        H562   1.085       .  S
C555        H563   1.086       .  S
C555        C556   1.345       .  D
C556        H564   1.085       .  S
C565        C573   1.481       .  S
C565        C566   1.408       .  A
C565        C570   1.400       .  A
C566        C567   1.407       .  A
C566        H575   1.082       .  S
C567        C568   1.410       .  A
C567        H576   1.081       .  S
C568        C571   1.486       .  S
C568        C569   1.402       .  A
C569        C570   1.389       .  A
C569        H577   1.084       .  S
C570        H578   1.084       .  S
C571        H579   1.088       .  S
C571        C572   1.348   1_554  D
C572        H580   1.084       .  S
C573        H581   1.088       .  S
C573        C574   1.346       .  D
C574        H582   1.085       .  S
C583        C591   1.478       .  S
C583        C584   1.401       .  A
C583        C588   1.405       .  A
C584        C585   1.395       .  A
C584        H593   1.084       .  S
C585        C586   1.408       .  A
C585        H594   1.082       .  S
C586        C589   1.486       .  S
C586        C587   1.403       .  A
C587        C588   1.400       .  A
C587        H595   1.083       .  S
C588        H596   1.082       .  S
C589        H597   1.086       .  S
C589        C590   1.344       .  D
C590        H598   1.085       .  S
C591        H599   1.089       .  S
C591        C592   1.344       .  D
C592        H600   1.085       .  S
C601        C609   1.476       .  S
C601        C602   1.401       .  A
C601        C606   1.406       .  A
C602        C603   1.390       .  A
C602        H611   1.084       .  S
C603        C604   1.401       .  A
C603        H612   1.084       .  S
C604        C607   1.477       .  S
C604        C605   1.408       .  A
C605        C606   1.397       .  A
C605        H613   1.081       .  S
C606        H614   1.081       .  S
C607        H615   1.088       .  S
C607        C608   1.341       .  D
C608        H616   1.084       .  S
C609        H617   1.087       .  S
C609        C610   1.344       .  D
C610        H618   1.084       .  S
C619        C627   1.477       .  S
C619        C620   1.403       .  A
C619        C624   1.406       .  A
C620        C621   1.401       .  A
C620        H629   1.083       .  S
C621        C622   1.406       .  A
C621        H630   1.083       .  S
C622        C625   1.471       .  S
C622        C623   1.398       .  A
C623        C624   1.392       .  A
C623        H631   1.084       .  S
C624        H632   1.083       .  S
C625        H633   1.088       .  S
C625        C626   1.340       .  D
C626        H634   1.086       .  S
C627        H635   1.087       .  S
C627        C628   1.340       .  D
C628        H636   1.087       .  S
C637        C645   1.496       .  S
C637        C638   1.405       .  A
C637        C642   1.410       .  A
C638        C639   1.402       .  A
C638        H647   1.083       .  S
C639        C640   1.409       .  A
C639        H648   1.082       .  S
C640        C643   1.494       .  S
C640        C641   1.403       .  A
C641        C642   1.402       .  A
C641        H649   1.083       .  S
C642        H650   1.081       .  S
C643        H651   1.087       .  S
C643        C644   1.346       .  D
C644        H652   1.086       .  S
C645        H653   1.087       .  S
C645        C646   1.348       .  D
C646        H654   1.085       .  S
C655        C663   1.496       .  S
C655        C656   1.407       .  A
C655        C660   1.410       .  A
C656        C657   1.404       .  A
C656        H665   1.083       .  S
C657        C658   1.406       .  A
C657        H666   1.083       .  S
C658        C661   1.482       .  S
C658        C659   1.401       .  A
C659        C660   1.396       .  A
C659        H667   1.084       .  S
C660        H668   1.081       .  S
C661        H669   1.089       .  S
C661        C662   1.347       .  D
C662        H670   1.085       .  S
C663        H671   1.087       .  S
C663        C664   1.348       .  D
C664        H672   1.084       .  S
C673        C681   1.490       .  S
C673        C674   1.404   1_655  A
C673        C678   1.409       .  A
C674        C675   1.396       .  A
C674        H683   1.084   1_455  S
C675        C676   1.406       .  A
C675        H684   1.082       .  S
C676        C679   1.489       .  S
C676        C677   1.403       .  A
C677        C678   1.402   1_455  A
C677        H685   1.083       .  S
C678        H686   1.080       .  S
C679        H687   1.087       .  S
C679        C680   1.344       .  D
C680        H688   1.086       .  S
C681        H689   1.087       .  S
C681        C682   1.349       .  D
C682        H690   1.083       .  S
C691        C699   1.498       .  S
C691        C692   1.403   1_655  A
C691        C696   1.410   1_655  A
C692        C693   1.398       .  A
C692        H701   1.084   1_455  S
C693        C694   1.409       .  A
C693        H702   1.081       .  S
C694        C697   1.504       .  S
C694        C695   1.408       .  A
C695        C696   1.409       .  A
C695        H703   1.083       .  S
C696        H704   1.081   1_455  S
C697        H705   1.086       .  S
C697        C698   1.350       .  D
C698        H706   1.084       .  S
C699        H707   1.087       .  S
C699        C700   1.350       .  D
C700        H708   1.084       .  S
C709        C717   1.481       .  S
C709        C710   1.401       .  A
C709        C714   1.407       .  A
C710        C711   1.396       .  A
C710        H719   1.084       .  S
C711        C712   1.408       .  A
C711        H720   1.081       .  S
C712        C715   1.485       .  S
C712        C713   1.403       .  A
C713        C714   1.399       .  A
C713        H721   1.084       .  S
C714        H722   1.082       .  S
C715        H723   1.087       .  S
C715        C716   1.345       .  D
C716        H724   1.085       .  S
C717        H725   1.087       .  S
C717        C718   1.344       .  D
C718        H726   1.086       .  S
C727        C735   1.484       .  S
C727        C728   1.402       .  A
C727        C732   1.407       .  A
C728        C729   1.401       .  A
C728        H737   1.083       .  S
C729        C730   1.407       .  A
C729        H738   1.082       .  S
C730        C733   1.482       .  S
C730        C731   1.401       .  A
C731        C732   1.396       .  A
C731        H739   1.084       .  S
C732        H740   1.083       .  S
C733        H741   1.087       .  S
C733        C734   1.345       .  D
C734        H742   1.086       .  S
C735        H743   1.086       .  S
C735        C736   1.342       .  D
C736        H744   1.087       .  S
C745        C753   1.486       .  S
C745        C746   1.404   1_455  A
C745        C750   1.406       .  A
C746        C747   1.401       .  A
C746        H755   1.083       .  S
C747        C748   1.406       .  A
C747        H756   1.083       .  S
C748        C751   1.487       .  S
C748        C749   1.405       .  A
C749        C750   1.402   1_655  A
C749        H757   1.083       .  S
C750        H758   1.083       .  S
C751        H759   1.087       .  S
C751        C752   1.348       .  D
C752        H760   1.086       .  S
C753        H761   1.087       .  S
C753        C754   1.345       .  D
C754        H762   1.087       .  S
C763        C771   1.488       .  S
C763        C764   1.405       .  A
C763        C768   1.407       .  A
C764        C765   1.399       .  A
C764        H773   1.084       .  S
C765        C766   1.406       .  A
C765        H774   1.082       .  S
C766        C769   1.487       .  S
C766        C767   1.404       .  A
C767        C768   1.400       .  A
C767        H775   1.084       .  S
C768        H776   1.082       .  S
C769        H777   1.088       .  S
C769        C770   1.346       .  D
C770        H778   1.086       .  S
C771        H779   1.087       .  S
C771        C772   1.350       .  D
C772        H780   1.085       .  S
C781        C789   1.480       .  S
C781        C782   1.408       .  A
C781        C786   1.400       .  A
C782        C783   1.400       .  A
C782        H791   1.082       .  S
C783        C784   1.407       .  A
C783        H792   1.082       .  S
C784        C787   1.480       .  S
C784        C785   1.403       .  A
C785        C786   1.393       .  A
C785        H793   1.084       .  S
C786        H794   1.083       .  S
C787        H795   1.088       .  S
C787        C788   1.346       .  D
C788        H796   1.085       .  S
C789        H797   1.087       .  S
C789        C790   1.342       .  D
C790        H798   1.086       .  S
C799        C807   1.491       .  S
C799        C800   1.403   1_455  A
C799        C804   1.410   1_455  A
C800        C801   1.396       .  A
C800        H809   1.083   1_655  S
C801        C802   1.408       .  A
C801        H810   1.082       .  S
C802        C805   1.489       .  S
C802        C803   1.403       .  A
C803        C804   1.404       .  A
C803        H811   1.083       .  S
C804        H812   1.081       .  S
C805        H813   1.087       .  S
C805        C806   1.343       .  D
C806        H814   1.086       .  S
C807        H815   1.087       .  S
C807        C808   1.349       .  D
C808        H816   1.085       .  S
C817        C825   1.479   1_554  S
C817        C818   1.400       .  A
C817        C822   1.408   1_554  A
C818        C819   1.396       .  A
C818        H827   1.083       .  S
C819        C820   1.409       .  A
C819        H828   1.082       .  S
C820        C823   1.484       .  S
C820        C821   1.402   1_554  A
C821        C822   1.398       .  A
C821        H829   1.083       .  S
C822        H830   1.082       .  S
C823        H831   1.087       .  S
C823        C824   1.343       .  D
C824        H832   1.086       .  S
C825        H833   1.087   1_556  S
C825        C826   1.343       .  D
C826        H834   1.086       .  S
C835        C843   1.485       .  S
C835        C836   1.402       .  A
C835        C840   1.408       .  A
C836        C837   1.398       .  A
C836        H845   1.083       .  S
C837        C838   1.410       .  A
C837        H846   1.081       .  S
C838        C841   1.486       .  S
C838        C839   1.401       .  A
C839        C840   1.398       .  A
C839        H847   1.083       .  S
C840        H848   1.082       .  S
C841        H849   1.087       .  S
C841        C842   1.343       .  D
C842        H850   1.085       .  S
C843        H851   1.087       .  S
C843        C844   1.344       .  D
C844        H852   1.085       .  S
C853        C861   1.494       .  S
C853        C854   1.405       .  A
C853        C858   1.407       .  A
C854        C855   1.407       .  A
C854        H863   1.083       .  S
C855        C856   1.411       .  A
C855        H864   1.081       .  S
C856        C859   1.494       .  S
C856        C857   1.404       .  A
C857        C858   1.396       .  A
C857        H865   1.083       .  S
C858        H866   1.083       .  S
C859        H867   1.087       .  S
C859        C860   1.350   1_556  D
C860        H868   1.084   1_554  S
C861        H869   1.086       .  S
C861        C862   1.347       .  D
C862        H870   1.087       .  S
C871        C879   1.492       .  S
C871        C872   1.402       .  A
C871        C876   1.411       .  A
C872        C873   1.398       .  A
C872        H881   1.083       .  S
C873        C874   1.403       .  A
C873        H882   1.083       .  S
C874        C877   1.484       .  S
C874        C875   1.406       .  A
C875        C876   1.404       .  A
C875        H883   1.083       .  S
C876        H884   1.082       .  S
C877        H885   1.088       .  S
C877        C878   1.348       .  D
C878        H886   1.086       .  S
C879        H887   1.087       .  S
C879        C880   1.344       .  D
C880        H888   1.086       .  S
C889        C897   1.496       .  S
C889        C890   1.406       .  A
C889        C894   1.408       .  A
C890        C891   1.404       .  A
C890        H899   1.083       .  S
C891        C892   1.410       .  A
C891        H900   1.080       .  S
C892        C895   1.494       .  S
C892        C893   1.403       .  A
C893        C894   1.397       .  A
C893        H901   1.084       .  S
C894        H902   1.080       .  S
C895        H903   1.087       .  S
C895        C896   1.348       .  D
C896        H904   1.084       .  S
C897        H905   1.087       .  S
C897        C898   1.349       .  D
C898        H906   1.084       .  S
C907        C915   1.501       .  S
C907        C908   1.407       .  A
C907        C912   1.411       .  A
C908        C909   1.405       .  A
C908        H917   1.083       .  S
C909        C910   1.410       .  A
C909        H918   1.080       .  S
C910        C913   1.496       .  S
C910        C911   1.403       .  A
C911        C912   1.398       .  A
C911        H919   1.084       .  S
C912        H920   1.079       .  S
C913        H921   1.087       .  S
C913        C914   1.348       .  D
C914        H922   1.083       .  S
C915        H923   1.087       .  S
C915        C916   1.349       .  D
C916        H924   1.082       .  S
C925        C933   1.470       .  S
C925        C926   1.400       .  A
C925        C930   1.406       .  A
C926        C927   1.394       .  A
C926        H935   1.083       .  S
C927        C928   1.407       .  A
C927        H936   1.082       .  S
C928        C931   1.468       .  S
C928        C929   1.398       .  A
C929        C930   1.388       .  A
C929        H937   1.084       .  S
C930        H938   1.082       .  S
C931        H939   1.088       .  S
C931        C932   1.338       .  D
C932        H940   1.086       .  S
C933        H941   1.087       .  S
C933        C934   1.338       .  D
C934        H942   1.086       .  S
C943        C951   1.469       .  S
C943        C944   1.398       .  A
C943        C948   1.406       .  A
C944        C945   1.392       .  A
C944        H953   1.083       .  S
C945        C946   1.408       .  A
C945        H954   1.082       .  S
C946        C949   1.471       .  S
C946        C947   1.399       .  A
C947        C948   1.392       .  A
C947        H955   1.083       .  S
C948        H956   1.083       .  S
C949        H957   1.087       .  S
C949        C950   1.338       .  D
C950        H958   1.086       .  S
C951        H959   1.087       .  S
C951        C952   1.337       .  D
C952        H960   1.087       .  S
C961        C969   1.486       .  S
C961        C962   1.402       .  A
C961        C966   1.409       .  A
C962        C963   1.399       .  A
C962        H971   1.083       .  S
C963        C964   1.409       .  A
C963        H972   1.082       .  S
C964        C967   1.484       .  S
C964        C965   1.400       .  A
C965        C966   1.397       .  A
C965        H973   1.084       .  S
C966        H974   1.082   1_556  S
C967        H975   1.087       .  S
C967        C968   1.342       .  D
C968        H976   1.086       .  S
C969        H977   1.087       .  S
C969        C970   1.345   1_556  D
C970        H978   1.086       .  S
C979        C987   1.483       .  S
C979        C980   1.404       .  A
C979        C984   1.406       .  A
C980        C981   1.397       .  A
C980        H989   1.083       .  S
C981        C982   1.405       .  A
C981        H990   1.082       .  S
C982        C985   1.483       .  S
C982        C983   1.404       .  A
C983        C984   1.398       .  A
C983        H991   1.083       .  S
C984        H992   1.082       .  S
C985        H993   1.087       .  S
C985        C986   1.348       .  D
C986        H994   1.085       .  S
C987        H995   1.087       .  S
C987        C988   1.347       .  D
C988        H996   1.085       .  S
C997       C1005   1.493       .  S
C997        C998   1.403       .  A
C997       C1002   1.408       .  A
C998        C999   1.403       .  A
C998       H1007   1.083       .  S
C999       C1000   1.411       .  A
C999       H1008   1.082       .  S
C1000      C1003   1.496       .  S
C1000      C1001   1.404       .  A
C1001      C1002   1.401       .  A
C1001      H1009   1.083       .  S
C1002      H1010   1.083       .  S
C1003      H1011   1.087       .  S
C1003      C1004   1.346       .  D
C1004      H1012   1.085       .  S
C1005      H1013   1.087       .  S
C1005      C1006   1.344       .  D
C1006      H1014   1.087       .  S
C1015      C1023   1.497   1_554  S
C1015      C1016   1.403       .  A
C1015      C1020   1.412       .  A
C1016      C1017   1.396       .  A
C1016      H1025   1.084       .  S
C1017      C1018   1.405       .  A
C1017      H1026   1.083       .  S
C1018      C1021   1.496       .  S
C1018      C1019   1.410       .  A
C1019      C1020   1.411       .  A
C1019      H1027   1.081       .  S
C1020      H1028   1.081       .  S
C1021      H1029   1.087       .  S
C1021      C1022   1.354       .  D
C1022      H1030   1.085       .  S
C1023      H1031   1.087       .  S
C1023      C1024   1.351       .  D
C1024      H1032   1.085       .  S
C1033      C1041   1.485       .  S
C1033      C1034   1.403       .  A
C1033      C1038   1.407       .  A
C1034      C1035   1.402       .  A
C1034      H1043   1.083       .  S
C1035      C1036   1.408       .  A
C1035      H1044   1.082       .  S
C1036      C1039   1.485       .  S
C1036      C1037   1.402       .  A
C1037      C1038   1.398       .  A
C1037      H1045   1.084       .  S
C1038      H1046   1.083       .  S
C1039      H1047   1.087       .  S
C1039      C1040   1.345       .  D
C1040      H1048   1.086       .  S
C1041      H1049   1.087       .  S
C1041      C1042   1.344       .  D
C1042      H1050   1.087       .  S
C1051      C1059   1.484       .  S
C1051      C1052   1.402       .  A
C1051      C1056   1.408       .  A
C1052      C1053   1.400       .  A
C1052      H1061   1.083       .  S
C1053      C1054   1.407       .  A
C1053      H1062   1.083       .  S
C1054      C1057   1.477       .  S
C1054      C1055   1.400       .  A
C1055      C1056   1.396       .  A
C1055      H1063   1.084       .  S
C1056      H1064   1.082       .  S
C1057      H1065   1.088       .  S
C1057      C1058   1.342       .  D
C1058      H1066   1.086       .  S
C1059      H1067   1.087       .  S
C1059      C1060   1.341       .  D
C1060      H1068   1.087       .  S
C1069      C1077   1.488       .  S
C1069      C1070   1.406       .  A
C1069      C1074   1.405       .  A
C1070      C1071   1.403       .  A
C1070      H1079   1.083       .  S
C1071      C1072   1.406       .  A
C1071      H1080   1.083       .  S
C1072      C1075   1.486       .  S
C1072      C1073   1.404       .  A
C1073      C1074   1.400       .  A
C1073      H1081   1.083       .  S
C1074      H1082   1.083       .  S
C1075      H1083   1.087       .  S
C1075      C1076   1.347       .  D
C1076      H1084   1.086       .  S
C1077      H1085   1.087       .  S
C1077      C1078   1.347       .  D
C1078      H1086   1.086       .  S
C1087      C1095   1.493       .  S
C1087      C1088   1.403       .  A
C1087      C1092   1.408       .  A
C1088      C1089   1.400       .  A
C1088      H1097   1.083       .  S
C1089      C1090   1.410       .  A
C1089      H1098   1.081       .  S
C1090      C1093   1.501       .  S
C1090      C1091   1.408       .  A
C1091      C1092   1.406       .  A
C1091      H1099   1.083       .  S
C1092      H1100   1.082       .  S
C1093      H1101   1.087       .  S
C1093      C1094   1.350       .  D
C1094      H1102   1.084       .  S
C1095      H1103   1.087       .  S
C1095      C1096   1.349       .  D
C1096      H1104   1.086       .  S
C1105      C1113   1.489       .  S
C1105      C1106   1.402       .  A
C1105      C1110   1.410       .  A
C1106      C1107   1.393       .  A
C1106      H1115   1.084       .  S
C1107      C1108   1.406       .  A
C1107      H1116   1.083       .  S
C1108      C1111   1.493       .  S
C1108      C1109   1.406       .  A
C1109      C1110   1.409       .  A
C1109      H1117   1.083       .  S
C1110      H1118   1.082       .  S
C1111      H1119   1.086       .  S
C1111      C1112   1.346       .  D
C1112      H1120   1.088       .  S
C1113      H1121   1.087       .  S
C1113      C1114   1.348       .  D
C1114      H1122   1.085       .  S
C1123      C1131   1.487       .  S
C1123      C1124   1.404       .  A
C1123      C1128   1.408       .  A
C1124      C1125   1.393       .  A
C1124      H1133   1.084       .  S
C1125      C1126   1.405       .  A
C1125      H1134   1.083       .  S
C1126      C1129   1.489       .  S
C1126      C1127   1.405       .  A
C1127      C1128   1.406       .  A
C1127      H1135   1.083       .  S
C1128      H1136   1.081       .  S
C1129      H1137   1.086       .  S
C1129      C1130   1.345       .  D
C1130      H1138   1.087       .  S
C1131      H1139   1.087       .  S
C1131      C1132   1.352       .  D
C1132      H1140   1.084       .  S
C1141      C1149   1.497       .  S
C1141      C1142   1.407       .  A
C1141      C1146   1.409       .  A
C1142      C1143   1.402       .  A
C1142      H1151   1.084       .  S
C1143      C1144   1.406       .  A
C1143      H1152   1.082       .  S
C1144      C1147   1.495       .  S
C1144      C1145   1.406       .  A
C1145      C1146   1.405       .  A
C1145      H1153   1.083       .  S
C1146      H1154   1.081       .  S
C1147      H1155   1.087       .  S
C1147      C1148   1.348       .  D
C1148      H1156   1.086       .  S
C1149      H1157   1.087       .  S
C1149      C1150   1.353       .  D
C1150      H1158   1.085       .  S
C1159      C1167   1.497       .  S
C1159      C1160   1.406       .  A
C1159      C1164   1.407       .  A
C1160      C1161   1.406       .  A
C1160      H1169   1.083       .  S
C1161      C1162   1.411       .  A
C1161      H1170   1.080       .  S
C1162      C1165   1.500       .  S
C1162      C1163   1.407       .  A
C1163      C1164   1.400       .  A
C1163      H1171   1.083       .  S
C1164      H1172   1.082       .  S
C1165      H1173   1.087       .  S
C1165      C1166   1.354       .  D
C1166      H1174   1.083       .  S
C1167      H1175   1.087       .  S
C1167      C1168   1.349       .  D
C1168      H1176   1.085       .  S
C1177      C1185   1.490       .  S
C1177      C1178   1.401       .  A
C1177      C1182   1.412       .  A
C1178      C1179   1.394       .  A
C1178      H1187   1.084       .  S
C1179      C1180   1.404       .  A
C1179      H1188   1.083       .  S
C1180      C1183   1.485       .  S
C1180      C1181   1.406       .  A
C1181      C1182   1.406       .  A
C1181      H1189   1.082       .  S
C1182      H1190   1.081   1_556  S
C1183      H1191   1.089       .  S
C1183      C1184   1.351       .  D
C1184      H1192   1.085       .  S
C1185      H1193   1.088       .  S
C1185      C1186   1.347   1_556  D
C1186      H1194   1.085       .  S
C1195      C1203   1.488       .  S
C1195      C1196   1.405       .  A
C1195      C1200   1.407       .  A
C1196      C1197   1.405       .  A
C1196      H1205   1.083       .  S
C1197      C1198   1.408       .  A
C1197      H1206   1.082       .  S
C1198      C1201   1.482       .  S
C1198      C1199   1.400       .  A
C1199      C1200   1.391       .  A
C1199      H1207   1.083       .  S
C1200      H1208   1.083       .  S
C1201      H1209   1.088       .  S
C1201      C1202   1.343       .  D
C1202      H1210   1.086       .  S
C1203      H1211   1.086       .  S
C1203      C1204   1.344       .  D
C1204      H1212   1.086       .  S
C1213      C1221   1.501       .  S
C1213      C1214   1.405       .  A
C1213      C1218   1.410       .  A
C1214      C1215   1.402       .  A
C1214      H1223   1.083       .  S
C1215      C1216   1.411       .  A
C1215      H1224   1.078       .  S
C1216      C1219   1.506       .  S
C1216      C1217   1.408       .  A
C1217      C1218   1.406       .  A
C1217      H1225   1.083       .  S
C1218      H1226   1.081       .  S
C1219      H1227   1.087       .  S
C1219      C1220   1.353       .  D
C1220      H1228   1.082       .  S
C1221      H1229   1.087       .  S
C1221      C1222   1.351       .  D
C1222      H1230   1.084       .  S
C1231      C1239   1.496       .  S
C1231      C1232   1.404       .  A
C1231      C1236   1.411       .  A
C1232      C1233   1.397       .  A
C1232      H1241   1.084       .  S
C1233      C1234   1.408       .  A
C1233      H1242   1.082       .  S
C1234      C1237   1.498       .  S
C1234      C1235   1.406       .  A
C1235      C1236   1.407       .  A
C1235      H1243   1.083       .  S
C1236      H1244   1.080       .  S
C1237      H1245   1.086       .  S
C1237      C1238   1.347       .  D
C1238      H1246   1.085       .  S
C1239      H1247   1.087       .  S
C1239      C1240   1.350       .  D
C1240      H1248   1.084       .  S
C1249      C1257   1.487       .  S
C1249      C1250   1.403       .  A
C1249      C1254   1.407       .  A
C1250      C1251   1.397       .  A
C1250      H1259   1.084       .  S
C1251      C1252   1.407       .  A
C1251      H1260   1.081       .  S
C1252      C1255   1.497       .  S
C1252      C1253   1.408       .  A
C1253      C1254   1.406       .  A
C1253      H1261   1.084       .  S
C1254      H1262   1.082       .  S
C1255      H1263   1.087       .  S
C1255      C1256   1.351       .  D
C1256      H1264   1.084       .  S
C1257      H1265   1.089       .  S
C1257      C1258   1.348       .  D
C1258      H1266   1.085       .  S
C1267      C1275   1.481       .  S
C1267      C1268   1.400       .  A
C1267      C1272   1.408       .  A
C1268      C1269   1.390       .  A
C1268      H1277   1.084       .  S
C1269      C1270   1.405       .  A
C1269      H1278   1.083       .  S
C1270      C1273   1.484       .  S
C1270      C1271   1.405       .  A
C1271      C1272   1.406       .  A
C1271      H1279   1.083       .  S
C1272      H1280   1.082       .  S
C1273      H1281   1.086       .  S
C1273      C1274   1.344       .  D
C1274      H1282   1.087       .  S
C1275      H1283   1.087       .  S
C1275      C1276   1.347       .  D
C1276      H1284   1.086       .  S
C1285      C1293   1.480       .  S
C1285      C1286   1.401       .  A
C1285      C1290   1.406       .  A
C1286      C1287   1.398       .  A
C1286      H1295   1.084       .  S
C1287      C1288   1.407       .  A
C1287      H1296   1.083       .  S
C1288      C1291   1.484       .  S
C1288      C1289   1.403       .  A
C1289      C1290   1.402       .  A
C1289      H1297   1.083       .  S
C1290      H1298   1.083       .  S
C1291      H1299   1.086       .  S
C1291      C1292   1.344       .  D
C1292      H1300   1.087       .  S
C1293      H1301   1.087       .  S
C1293      C1294   1.344       .  D
C1294      H1302   1.087       .  S
C1303      C1311   1.483       .  S
C1303      C1304   1.401       .  A
C1303      C1308   1.408       .  A
C1304      C1305   1.398       .  A
C1304      H1313   1.084       .  S
C1305      C1306   1.409       .  A
C1305      H1314   1.081       .  S
C1306      C1309   1.486       .  S
C1306      C1307   1.402       .  A
C1307      C1308   1.398       .  A
C1307      H1315   1.083       .  S
C1308      H1316   1.082       .  S
C1309      H1317   1.087       .  S
C1309      C1310   1.343       .  D
C1310      H1318   1.085       .  S
C1311      H1319   1.087       .  S
C1311      C1312   1.344       .  D
C1312      H1320   1.086       .  S
C1321      C1329   1.498       .  S
C1321      C1322   1.406       .  A
C1321      C1326   1.408       .  A
C1322      C1323   1.405       .  A
C1322      H1331   1.083       .  S
C1323      C1324   1.410       .  A
C1323      H1332   1.080       .  S
C1324      C1327   1.496       .  S
C1324      C1325   1.405       .  A
C1325      C1326   1.399       .  A
C1325      H1333   1.083       .  S
C1326      H1334   1.081       .  S
C1327      H1335   1.087       .  S
C1327      C1328   1.350       .  D
C1328      H1336   1.084       .  S
C1329      H1337   1.086       .  S
C1329      C1330   1.349       .  D
C1330      H1338   1.084       .  S
C1339      C1347   1.503       .  S
C1339      C1340   1.407       .  A
C1339      C1344   1.412       .  A
C1340      C1341   1.402       .  A
C1340      H1349   1.083       .  S
C1341      C1342   1.405       .  A
C1341      H1350   1.083       .  S
C1342      C1345   1.498       .  S
C1342      C1343   1.409       .  A
C1343      C1344   1.405       .  A
C1343      H1351   1.081       .  S
C1344      H1352   1.080       .  S
C1345      H1353   1.087       .  S
C1345      C1346   1.351       .  D
C1346      H1354   1.085       .  S
C1347      H1355   1.087       .  S
C1347      C1348   1.352       .  D
C1348      H1356   1.083       .  S
C1357      C1365   1.487       .  S
C1357      C1358   1.403       .  A
C1357      C1362   1.408       .  A
C1358      C1359   1.398       .  A
C1358      H1367   1.084       .  S
C1359      C1360   1.406       .  A
C1359      H1368   1.083       .  S
C1360      C1363   1.489       .  S
C1360      C1361   1.405       .  A
C1361      C1362   1.405       .  A
C1361      H1369   1.083       .  S
C1362      H1370   1.082       .  S
C1363      H1371   1.087       .  S
C1363      C1364   1.345       .  D
C1364      H1372   1.087       .  S
C1365      H1373   1.087       .  S
C1365      C1366   1.350       .  D
C1366      H1374   1.086       .  S
C1375      C1383   1.480       .  S
C1375      C1376   1.401       .  A
C1375      C1380   1.403       .  A
C1376      C1377   1.403   1_556  A
C1376      H1385   1.083       .  S
C1377      C1378   1.411       .  A
C1377      H1386   1.080       .  S
C1378      C1381   1.491       .  S
C1378      C1379   1.405       .  A
C1379      C1380   1.396   1_554  A
C1379      H1387   1.083       .  S
C1380      H1388   1.084       .  S
C1381      H1389   1.087       .  S
C1381      C1382   1.348       .  D
C1382      H1390   1.084       .  S
C1383      H1391   1.086       .  S
C1383      C1384   1.341       .  D
C1384      H1392   1.089       .  S
C1393      C1401   1.501       .  S
C1393      C1394   1.406       .  A
C1393      C1398   1.410       .  A
C1394      C1395   1.404       .  A
C1394      H1403   1.083       .  S
C1395      C1396   1.409       .  A
C1395      H1404   1.081       .  S
C1396      C1399   1.498       .  S
C1396      C1397   1.405       .  A
C1397      C1398   1.402       .  A
C1397      H1405   1.084       .  S
C1398      H1406   1.080       .  S
C1399      H1407   1.087       .  S
C1399      C1400   1.351       .  D
C1400      H1408   1.084       .  S
C1401      H1409   1.087       .  S
C1401      C1402   1.352       .  D
C1402      H1410   1.084       .  S
C1411      C1419   1.497       .  S
C1411      C1412   1.406       .  A
C1411      C1416   1.407       .  A
C1412      C1413   1.405   1_545  A
C1412      H1421   1.083       .  S
C1413      C1414   1.410       .  A
C1413      H1422   1.080       .  S
C1414      C1417   1.496       .  S
C1414      C1415   1.405       .  A
C1415      C1416   1.399   1_565  A
C1415      H1423   1.083       .  S
C1416      H1424   1.082       .  S
C1417      H1425   1.087       .  S
C1417      C1418   1.351       .  D
C1418      H1426   1.083       .  S
C1419      H1427   1.087       .  S
C1419      C1420   1.348       .  D
C1420      H1428   1.085       .  S
C1429      C1437   1.496       .  S
C1429      C1430   1.405       .  A
C1429      C1434   1.410       .  A
C1430      C1431   1.400       .  A
C1430      H1439   1.083       .  S
C1431      C1432   1.407       .  A
C1431      H1440   1.082       .  S
C1432      C1435   1.492       .  S
C1432      C1433   1.403       .  A
C1433      C1434   1.401       .  A
C1433      H1441   1.083       .  S
C1434      H1442   1.080       .  S
C1435      H1443   1.087       .  S
C1435      C1436   1.347       .  D
C1436      H1444   1.085       .  S
C1437      H1445   1.087       .  S
C1437      C1438   1.350       .  D
C1438      H1446   1.083       .  S
C1447      C1455   1.501       .  S
C1447      C1448   1.405       .  A
C1447      C1452   1.411       .  A
C1448      C1449   1.399   1_565  A
C1448      H1457   1.084       .  S
C1449      C1450   1.409       .  A
C1449      H1458   1.081       .  S
C1450      C1453   1.500       .  S
C1450      C1451   1.407       .  A
C1451      C1452   1.408   1_545  A
C1451      H1459   1.083       .  S
C1452      H1460   1.080       .  S
C1453      H1461   1.087       .  S
C1453      C1454   1.350       .  D
C1454      H1462   1.085       .  S
C1455      H1463   1.087       .  S
C1455      C1456   1.352       .  D
C1456      H1464   1.083       .  S
C1465      C1473   1.491       .  S
C1465      C1466   1.403       .  A
C1465      C1470   1.409       .  A
C1466      C1467   1.396   1_556  A
C1466      H1475   1.084       .  S
C1467      C1468   1.405       .  A
C1467      H1476   1.083       .  S
C1468      C1471   1.493       .  S
C1468      C1469   1.407       .  A
C1469      C1470   1.409   1_554  A
C1469      H1477   1.083       .  S
C1470      H1478   1.082       .  S
C1471      H1479   1.086       .  S
C1471      C1472   1.348       .  D
C1472      H1480   1.087       .  S
C1473      H1481   1.088       .  S
C1473      C1474   1.349       .  D
C1474      H1482   1.086       .  S
C1483      C1491   1.491       .  S
C1483      C1484   1.406       .  A
C1483      C1488   1.405       .  A
C1484      C1485   1.408       .  A
C1484      H1493   1.083       .  S
C1485      C1486   1.409       .  A
C1485      H1494   1.082       .  S
C1486      C1489   1.491       .  S
C1486      C1487   1.404       .  A
C1487      C1488   1.398       .  A
C1487      H1495   1.084       .  S
C1488      H1496   1.083       .  S
C1489      H1497   1.088       .  S
C1489      C1490   1.349       .  D
C1490      H1498   1.086       .  S
C1491      H1499   1.086       .  S
C1491      C1492   1.347       .  D
C1492      H1500   1.087       .  S
C1501      C1509   1.501       .  S
C1501      C1502   1.407       .  A
C1501      C1506   1.410       .  A
C1502      C1503   1.402       .  A
C1502      H1511   1.083       .  S
C1503      C1504   1.410       .  A
C1503      H1512   1.081       .  S
C1504      C1507   1.503       .  S
C1504      C1505   1.406       .  A
C1505      C1506   1.405       .  A
C1505      H1513   1.083       .  S
C1506      H1514   1.080       .  S
C1507      H1515   1.086       .  S
C1507      C1508   1.350       .  D
C1508      H1516   1.084       .  S
C1509      H1517   1.087       .  S
C1509      C1510   1.353       .  D
C1510      H1518   1.083       .  S
C1519      C1527   1.481       .  S
C1519      C1520   1.403       .  A
C1519      C1524   1.405       .  A
C1520      C1521   1.402       .  A
C1520      H1529   1.083       .  S
C1521      C1522   1.407       .  A
C1521      H1530   1.082       .  S
C1522      C1525   1.480       .  S
C1522      C1523   1.401       .  A
C1523      C1524   1.395       .  A
C1523      H1531   1.084       .  S
C1524      H1532   1.083       .  S
C1525      H1533   1.087       .  S
C1525      C1526   1.343       .  D
C1526      H1534   1.086       .  S
C1527      H1535   1.086       .  S
C1527      C1528   1.343       .  D
C1528      H1536   1.087       .  S
C1537      C1545   1.488       .  S
C1537      C1538   1.403       .  A
C1537      C1542   1.408       .  A
C1538      C1539   1.399       .  A
C1538      H1547   1.083       .  S
C1539      C1540   1.408       .  A
C1539      H1548   1.082       .  S
C1540      C1543   1.486       .  S
C1540      C1541   1.402       .  A
C1541      C1542   1.398       .  A
C1541      H1549   1.084       .  S
C1542      H1550   1.082       .  S
C1543      H1551   1.087       .  S
C1543      C1544   1.346       .  D
C1544      H1552   1.085       .  S
C1545      H1553   1.087       .  S
C1545      C1546   1.345       .  D
C1546      H1554   1.085       .  S
C1555      C1563   1.492       .  S
C1555      C1556   1.406       .  A
C1555      C1560   1.406       .  A
C1556      C1557   1.404       .  A
C1556      H1565   1.083       .  S
C1557      C1558   1.407       .  A
C1557      H1566   1.083       .  S
C1558      C1561   1.489       .  S
C1558      C1559   1.404       .  A
C1559      C1560   1.401       .  A
C1559      H1567   1.083       .  S
C1560      H1568   1.083       .  S
C1561      H1569   1.087       .  S
C1561      C1562   1.349       .  D
C1562      H1570   1.086       .  S
C1563      H1571   1.087       .  S
C1563      C1564   1.346       .  D
C1564      H1572   1.086       .  S
C1573      C1581   1.487       .  S
C1573      C1574   1.403       .  A
C1573      C1578   1.408       .  A
C1574      C1575   1.402       .  A
C1574      H1583   1.083       .  S
C1575      C1576   1.408       .  A
C1575      H1584   1.082       .  S
C1576      C1579   1.488       .  S
C1576      C1577   1.402       .  A
C1577      C1578   1.399       .  A
C1577      H1585   1.083       .  S
C1578      H1586   1.083       .  S
C1579      H1587   1.087       .  S
C1579      C1580   1.347       .  D
C1580      H1588   1.086       .  S
C1581      H1589   1.087       .  S
C1581      C1582   1.344       .  D
C1582      H1590   1.087       .  S
C1591      C1599   1.494       .  S
C1591      C1592   1.406       .  A
C1591      C1596   1.407       .  A
C1592      C1593   1.404       .  A
C1592      H1601   1.083       .  S
C1593      C1594   1.407       .  A
C1593      H1602   1.083       .  S
C1594      C1597   1.486       .  S
C1594      C1595   1.404       .  A
C1595      C1596   1.398       .  A
C1595      H1603   1.083       .  S
C1596      H1604   1.082       .  S
C1597      H1605   1.088       .  S
C1597      C1598   1.347       .  D
C1598      H1606   1.085       .  S
C1599      H1607   1.087       .  S
C1599      C1600   1.348       .  D
C1600      H1608   1.085       .  S
C1609      C1617   1.484       .  S
C1609      C1610   1.401       .  A
C1609      C1614   1.408       .  A
C1610      C1611   1.392       .  A
C1610      H1619   1.084       .  S
C1611      C1612   1.407       .  A
C1611      H1620   1.082       .  S
C1612      C1615   1.490       .  S
C1612      C1613   1.406       .  A
C1613      C1614   1.407       .  A
C1613      H1621   1.083       .  S
C1614      H1622   1.082       .  S
C1615      H1623   1.086       .  S
C1615      C1616   1.345       .  D
C1616      H1624   1.086       .  S
C1617      H1625   1.088       .  S
C1617      C1618   1.347       .  D
C1618      H1626   1.086       .  S
C1627      C1635   1.490       .  S
C1627      C1628   1.410       .  A
C1627      C1632   1.402       .  A
C1628      C1629   1.406       .  A
C1628      H1637   1.081       .  S
C1629      C1630   1.410       .  A
C1629      H1638   1.081       .  S
C1630      C1633   1.489       .  S
C1630      C1631   1.402       .  A
C1631      C1632   1.393       .  A
C1631      H1639   1.084       .  S
C1632      H1640   1.084       .  S
C1633      H1641   1.087       .  S
C1633      C1634   1.347       .  D
C1634      H1642   1.084       .  S
C1635      H1643   1.087       .  S
C1635      C1636   1.347       .  D
C1636      H1644   1.084       .  S
C1645      C1653   1.499       .  S
C1645      C1646   1.404       .  A
C1645      C1650   1.409       .  A
C1646      C1647   1.404       .  A
C1646      H1655   1.083       .  S
C1647      C1648   1.413       .  A
C1647      H1656   1.079       .  S
C1648      C1651   1.502       .  S
C1648      C1649   1.405       .  A
C1649      C1650   1.401       .  A
C1649      H1657   1.083       .  S
C1650      H1658   1.081       .  S
C1651      H1659   1.087       .  S
C1651      C1652   1.349       .  D
C1652      H1660   1.082       .  S
C1653      H1661   1.087       .  S
C1653      C1654   1.348       .  D
C1654      H1662   1.084       .  S
C1663      C1671   1.503       .  S
C1663      C1664   1.406   1_554  A
C1663      C1668   1.410       .  A
C1664      C1665   1.407   1_545  A
C1664      H1673   1.083       .  S
C1665      C1666   1.411   1_556  A
C1665      H1674   1.081       .  S
C1666      C1669   1.501   1_554  S
C1666      C1667   1.405       .  A
C1667      C1668   1.401   1_565  A
C1667      H1675   1.083       .  S
C1668      H1676   1.081       .  S
C1669      H1677   1.087       .  S
C1669      C1670   1.351       .  D
C1670      H1678   1.084       .  S
C1671      H1679   1.086   1_554  S
C1671      C1672   1.349       .  D
C1672      H1680   1.085       .  S
C1681      C1689   1.494       .  S
C1681      C1682   1.403       .  A
C1681      C1686   1.410       .  A
C1682      C1683   1.399       .  A
C1682      H1691   1.083       .  S
C1683      C1684   1.410       .  A
C1683      H1692   1.082       .  S
C1684      C1687   1.495       .  S
C1684      C1685   1.404       .  A
C1685      C1686   1.403       .  A
C1685      H1693   1.083       .  S
C1686      H1694   1.081       .  S
C1687      H1695   1.087       .  S
C1687      C1688   1.345       .  D
C1688      H1696   1.085       .  S
C1689      H1697   1.087       .  S
C1689      C1690   1.346       .  D
C1690      H1698   1.085       .  S
C1699      C1707   1.497       .  S
C1699      C1700   1.408       .  A
C1699      C1704   1.408       .  A
C1700      C1701   1.405       .  A
C1700      H1709   1.083       .  S
C1701      C1702   1.405       .  A
C1701      H1710   1.083       .  S
C1702      C1705   1.484       .  S
C1702      C1703   1.402       .  A
C1703      C1704   1.397       .  A
C1703      H1711   1.084       .  S
C1704      H1712   1.081       .  S
C1705      H1713   1.088       .  S
C1705      C1706   1.347       .  D
C1706      H1714   1.086       .  S
C1707      H1715   1.087       .  S
C1707      C1708   1.350       .  D
C1708      H1716   1.084       .  S
C1717      C1725   1.499       .  S
C1717      C1718   1.406       .  A
C1717      C1722   1.409       .  A
C1718      C1719   1.403       .  A
C1718      H1727   1.083       .  S
C1719      C1720   1.409       .  A
C1719      H1728   1.080       .  S
C1720      C1723   1.500       .  S
C1720      C1721   1.407       .  A
C1721      C1722   1.403       .  A
C1721      H1729   1.083       .  S
C1722      H1730   1.081       .  S
C1723      H1731   1.087       .  S
C1723      C1724   1.352       .  D
C1724      H1732   1.083       .  S
C1725      H1733   1.087       .  S
C1725      C1726   1.350       .  D
C1726      H1734   1.084       .  S
C1735      C1743   1.497       .  S
C1735      C1736   1.406       .  A
C1735      C1740   1.410       .  A
C1736      C1737   1.398   1_545  A
C1736      H1745   1.084       .  S
C1737      C1738   1.407       .  A
C1737      H1746   1.082       .  S
C1738      C1741   1.495       .  S
C1738      C1739   1.405       .  A
C1739      C1740   1.406   1_565  A
C1739      H1747   1.083       .  S
C1740      H1748   1.080       .  S
C1741      H1749   1.086       .  S
C1741      C1742   1.348       .  D
C1742      H1750   1.085       .  S
C1743      H1751   1.087       .  S
C1743      C1744   1.354       .  D
C1744      H1752   1.083       .  S
C1753      C1761   1.483       .  S
C1753      C1754   1.405       .  A
C1753      C1758   1.404       .  A
C1754      C1755   1.405       .  A
C1754      H1763   1.083       .  S
C1755      C1756   1.408       .  A
C1755      H1764   1.082       .  S
C1756      C1759   1.481       .  S
C1756      C1757   1.402       .  A
C1757      C1758   1.391       .  A
C1757      H1765   1.084       .  S
C1758      H1766   1.083       .  S
C1759      H1767   1.087       .  S
C1759      C1760   1.347       .  D
C1760      H1768   1.085       .  S
C1761      H1769   1.086       .  S
C1761      C1762   1.346       .  D
C1762      H1770   1.087       .  S
C1771      C1779   1.486       .  S
C1771      C1772   1.401       .  A
C1771      C1776   1.409       .  A
C1772      C1773   1.398       .  A
C1772      H1781   1.083       .  S
C1773      C1774   1.408       .  A
C1773      H1782   1.082       .  S
C1774      C1777   1.486       .  S
C1774      C1775   1.403       .  A
C1775      C1776   1.400       .  A
C1775      H1783   1.083       .  S
C1776      H1784   1.082       .  S
C1777      H1785   1.087       .  S
C1777      C1778   1.344       .  D
C1778      H1786   1.086       .  S
C1779      H1787   1.087       .  S
C1779      C1780   1.344       .  D
C1780      H1788   1.086       .  S
C1789      C1797   1.483       .  S
C1789      C1790   1.403       .  A
C1789      C1794   1.407       .  A
C1790      C1791   1.403       .  A
C1790      H1799   1.083       .  S
C1791      C1792   1.408       .  A
C1791      H1800   1.083       .  S
C1792      C1795   1.481       .  S
C1792      C1793   1.400       .  A
C1793      C1794   1.395       .  A
C1793      H1801   1.084       .  S
C1794      H1802   1.083       .  S
C1795      H1803   1.087       .  S
C1795      C1796   1.344       .  D
C1796      H1804   1.086       .  S
C1797      H1805   1.086       .  S
C1797      C1798   1.343       .  D
C1798      H1806   1.087       .  S
C1807      C1815   1.487       .  S
C1807      C1808   1.404       .  A
C1807      C1812   1.407       .  A
C1808      C1809   1.400       .  A
C1808      H1817   1.083       .  S
C1809      C1810   1.408       .  A
C1809      H1818   1.082       .  S
C1810      C1813   1.486       .  S
C1810      C1811   1.403       .  A
C1811      C1812   1.398       .  A
C1811      H1819   1.084       .  S
C1812      H1820   1.082       .  S
C1813      H1821   1.087       .  S
C1813      C1814   1.347       .  D
C1814      H1822   1.085       .  S
C1815      H1823   1.087       .  S
C1815      C1816   1.346       .  D
C1816      H1824   1.085       .  S
