geometry optimzed in LAMMPS
_audit_creation_date              2020-12-01 
_audit_creation_method            'lammps2cif' 
_symmetry_space_group_name_H-M    'P1' 
_symmetry_Int_Tables_number       1 
_symmetry_cell_setting            triclinic 
loop_ 
_symmetry_equiv_pos_as_xyz 
  x,y,z 
_cell_length_a                    69.5766334 
_cell_length_b                    69.55263298614415 
_cell_length_c                    43.74146389291998 
_cell_angle_alpha                 90.08041202118936 
_cell_angle_beta                  89.95020874593463 
_cell_angle_gamma                 120.06138568893229 
loop_ 
_atom_site_label 
_atom_site_type_symbol 
_atom_site_fract_x 
_atom_site_fract_y 
_atom_site_fract_z 
_atom_site_charge 
O1          O  0.83474876  0.28396929  0.19377231    -0.80300
O2          O  0.84495013  0.23928609  0.30891859    -0.65000
O3          O  0.83624068  0.27846550  0.25764658    -1.11600
C4          C  0.91445771  0.32033577  0.26056849     1.06600
O5          O  0.86666455  0.26736247  0.33901877    -0.78200
O6          O  0.87701074  0.30934127  0.32305349    -0.65800
Ni7        Ni  0.81436733  0.26665122  0.22598034     1.34900
C8          C  0.87291770  0.32179778  0.30638170     0.85300
O9          O  0.80836561  0.23854088  0.28991731    -0.78700
O10         O  0.79161607  0.24868681  0.25503995    -0.89000
C11         C  0.85541308  0.24655841  0.33374638     0.84900
O12         O  0.81724316  0.24146742  0.21478203    -0.67200
O13         O  0.91120155  0.31312062  0.28802988    -0.86500
C14         C  0.82808851  0.23287563  0.22597190     0.85700
C15         C  0.79098647  0.23697830  0.27785118     1.07300
H16         H  0.87654295  0.26978510  0.26568723     0.39100
O17         O  0.87038887  0.27761733  0.27649096    -1.09100
O18         O  0.86993996  0.31888242  0.27747892    -0.65800
Ni19       Ni  0.86734894  0.29656518  0.24806188     1.26300
O20         O  0.83933300  0.23977989  0.25039829    -0.66000
O21         O  0.89895882  0.31389912  0.24063249    -0.78300
C22         C  0.85078468  0.30396628  0.19325156     0.85100
O23         O  0.86270314  0.31322097  0.21679754    -0.65500
Ni24       Ni  0.88800470  0.29004419  0.31197849     1.27400
Ni25       Ni  0.83958070  0.25809139  0.28320910     1.26100
H26         H  0.83201491  0.28690671  0.27077969     0.39700
O27         O  0.93928640  0.18083505  0.64499974    -0.80300
O28         O  0.89953432  0.18066856  0.52022997    -0.65000
O29         O  0.93621890  0.17682339  0.58138156    -1.11600
C30         C  0.97793893  0.25468284  0.56765646     1.06600
O31         O  0.92957559  0.19970950  0.49291902    -0.78200
O32         O  0.97021468  0.21448443  0.51347455    -0.65800
Ni33       Ni  0.92355687  0.15748795  0.61539611     1.34900
C34         C  0.98096246  0.21003448  0.53268974     0.85300
O35         O  0.89910595  0.14630722  0.54733245    -0.78700
O36         O  0.90674665  0.13227902  0.58876159    -0.89000
C37         C  0.90866832  0.19000543  0.49530850     0.84900
O38         O  0.89829108  0.16089629  0.62138030    -0.67200
O39         O  0.97075866  0.25005678  0.54023639    -0.86500
C40         C  0.88967770  0.17047729  0.60679727     0.85700
C41         C  0.89722430  0.13005519  0.56297986     1.07300
H42         H  0.92742037  0.21558642  0.56279112     0.39100
O43         O  0.93586257  0.20910572  0.55479047    -1.09100
O44         O  0.97681473  0.20840709  0.56129411    -0.65800
Ni45       Ni  0.95398207  0.20849178  0.58673353     1.26300
O46         O  0.89629179  0.17872485  0.58023420    -0.66000
O47         O  0.97142259  0.24037118  0.58926616    -0.78300
C48         C  0.95941363  0.19657510  0.64572557     0.85100
O49         O  0.96968233  0.20660635  0.62151551    -0.65500
Ni50       Ni  0.94951305  0.22433441  0.51796249     1.27400
Ni51       Ni  0.91700356  0.17777568  0.55128449     1.26100
H52         H  0.94513021  0.17171254  0.57108151     0.39700
O53         O  0.89012019  0.39299894  0.97837214    -0.80300
O54         O  0.93852086  0.42956032  0.85722334    -0.65000
O55         O  0.89282144  0.39357447  0.91367012    -1.11600
C56         C  0.92613899  0.34964086  0.91174249     1.06600
O57         O  0.93202454  0.40028378  0.82947925    -0.78200
O58         O  0.89733513  0.36186832  0.85128607    -0.65800
Ni59       Ni  0.88405021  0.40720182  0.94433098     1.34900
C60         C  0.88226242  0.34937417  0.86999043     0.85300
O61         O  0.90355287  0.43134098  0.87776172    -0.78700
O62         O  0.87711237  0.42246173  0.91312676    -0.89000
C63         C  0.94135897  0.42128067  0.83303803     0.84900
O64         O  0.91205006  0.43350743  0.95115750    -0.67200
O65         O  0.92648816  0.35356175  0.88315999    -0.86500
C66         C  0.93114534  0.44022544  0.93976306     0.85700
C67         C  0.88769900  0.43310897  0.88922731     1.07300
H68         H  0.94145026  0.40111063  0.90176030     0.39100
O69         O  0.92675232  0.39288766  0.89294995    -1.09100
O70         O  0.88455498  0.35211858  0.89888866    -0.65800
Ni71       Ni  0.90622055  0.37618660  0.92440964     1.26300
O72         O  0.93458251  0.43161857  0.91632741    -0.66000
O73         O  0.92067784  0.35923420  0.93216198    -0.78300
C74         C  0.88647826  0.37319010  0.98151021     0.85100
O75         O  0.88679461  0.36203208  0.95853923    -0.65500
Ni76       Ni  0.92848292  0.37746423  0.85824342     1.27400
Ni77       Ni  0.91534594  0.41216005  0.88537586     1.26100
H78         H  0.87958537  0.38444103  0.90185361     0.39700
O79         O  0.10188936  0.49694080  0.52205672    -0.80300
O80         O  0.05463681  0.48939676  0.64448234    -0.65000
O81         O  0.09914854  0.49761086  0.58608608    -1.11600
C82         C  0.06369798  0.41930742  0.59277459     1.06600
O83         O  0.06474809  0.46953682  0.67158814    -0.78200
O84         O  0.09352059  0.45824625  0.65168543    -0.65800
Ni85       Ni  0.10725159  0.51850424  0.55360315     1.34900
C86         C  0.10993590  0.46437150  0.63398373     0.85300
O87         O  0.08924322  0.52573776  0.62037920    -0.78700
O88         O  0.11372687  0.54219110  0.58226229    -0.89000
C89         C  0.05320779  0.47885183  0.66889819     0.84900
O90         O  0.07856406  0.51465769  0.54539220    -0.67200
O91         O  0.06059635  0.42294941  0.62043377    -0.86500
C92         C  0.05973211  0.50376022  0.55823335     0.85700
C93         C  0.10428125  0.54298577  0.60690141     1.07300
H94         H  0.05124231  0.45710834  0.59950955     0.39100
O95         O  0.06578647  0.46363481  0.60878591    -1.09100
O96         O  0.10849091  0.46622189  0.60512234    -0.65800
Ni97       Ni  0.08635794  0.46634799  0.57802038     1.26300
O98         O  0.05698946  0.49408773  0.58394852    -0.66000
O99         O  0.07248874  0.43451451  0.57237416    -0.78300
C100        C  0.10660977  0.48147581  0.52075876     0.85100
O101        O  0.10598926  0.47059053  0.54453802    -0.65500
Ni102      Ni  0.06287432  0.44694817  0.64455392     1.27400
Ni103      Ni  0.07709609  0.49455587  0.61470408     1.26100
H104        H  0.11265723  0.50258370  0.59766167     0.39700
O105        O  0.04830716  0.23184175  0.85735740    -0.80300
O106        O  0.08867859  0.27412561  0.98242062    -0.65000
O107        O  0.05167436  0.23308654  0.92156693    -1.11600
C108        C  0.01083819  0.26942553  0.93292304     1.06600
O109        O  0.05962471  0.26603748  0.01139091    -0.78200
O110        O  0.02051494  0.23502262  0.98729153    -0.65800
Ni111      Ni  0.06456722  0.22584012  0.88806589     1.34900
C112        C  0.00792454  0.22132805  0.96721720     0.85300
O113        O  0.08845089  0.23949894  0.95702254    -0.78700
O114        O  0.08209336  0.21863864  0.91505980    -0.89000
C115        C  0.08053580  0.27574350  0.00752651     0.84900
O116        O  0.08906997  0.25486390  0.88103563    -0.67200
O117        O  0.01513799  0.26811823  0.96100398    -0.86500
C118        C  0.09789618  0.27311975  0.89560838     0.85700
C119        C  0.09101784  0.22563644  0.94120628     1.07300
H120        H  0.06167933  0.28171394  0.94059887     0.39100
O121        O  0.05290168  0.26651592  0.94773573    -1.09100
O122        O  0.01080771  0.22579208  0.93881581    -0.65800
Ni123      Ni  0.03521903  0.24825583  0.91486748     1.26300
O124        O  0.09201518  0.27473753  0.92269361    -0.66000
O125        O  0.01955513  0.26438257  0.91086040    -0.78300
C126        C  0.02896363  0.22956871  0.85628635     0.85100
O127        O  0.01931378  0.23075773  0.88021369    -0.65500
Ni128      Ni  0.03789516  0.26651375  0.98415943     1.27400
Ni129      Ni  0.07102000  0.25344840  0.95184445     1.26100
H130        H  0.04219652  0.21921035  0.93187108     0.39700
O131        O  0.15784114  0.44369044  0.30897378    -0.80300
O132        O  0.15127465  0.39354163  0.19100975    -0.65000
O133        O  0.15765838  0.43946079  0.24531444    -1.11600
C134        C  0.07943180  0.40174315  0.23738394     1.06600
O135        O  0.13215329  0.40351922  0.16196367    -0.78200
O136        O  0.11924070  0.43236949  0.17979194    -0.65800
Ni137      Ni  0.17932845  0.44976385  0.27703572     1.34900
C138        C  0.12229405  0.44783615  0.19804915     0.85300
O139        O  0.18690618  0.42948309  0.21365995    -0.78700
O140        O  0.20287823  0.45715978  0.24768483    -0.89000
C141        C  0.14129432  0.39180640  0.16600903     0.84900
O142        O  0.17814941  0.42225539  0.28651326    -0.67200
O143        O  0.08353762  0.39910185  0.20968764    -0.86500
C144        C  0.16673342  0.40263783  0.27602996     0.85700
C145        C  0.20397786  0.44627980  0.22485681     1.07300
H146        H  0.11801672  0.39034943  0.23298051     0.39100
O147        O  0.12446935  0.40493083  0.22357077    -1.09100
O148        O  0.12427511  0.44655536  0.22681368    -0.65800
Ni149      Ni  0.12622474  0.42538631  0.25362451     1.26300
O150        O  0.15538180  0.39826695  0.25151830    -0.66000
O151        O  0.09427264  0.41031724  0.25841758    -0.78300
C152        C  0.14126895  0.44677000  0.31035775     0.85100
O153        O  0.12952162  0.44478668  0.28691793    -0.65500
Ni154      Ni  0.10852448  0.40168707  0.18708555     1.27400
Ni155      Ni  0.15556842  0.41681173  0.21869528     1.26100
H156        H  0.16172925  0.45225660  0.23273422     0.39700
O157        O  0.13001530  0.73928316  0.66143784    -0.80300
O158        O  0.12711170  0.69230964  0.78517962    -0.65000
O159        O  0.12149376  0.72767180  0.72281069    -1.11600
C160        C  0.20080042  0.76884350  0.72779089     1.06600
O161        O  0.15292905  0.72252920  0.80902302    -0.78200
O162        O  0.17253541  0.76479113  0.78902560    -0.65800
Ni163      Ni  0.10722347  0.71534862  0.68503399     1.34900
C164        C  0.16071406  0.77234451  0.77807719     0.85300
O165        O  0.09190357  0.69008484  0.75492631    -0.78700
O166        O  0.08301293  0.69067489  0.70550977    -0.89000
C167        C  0.13751207  0.70219089  0.80954019     0.84900
O168        O  0.12109731  0.69826439  0.67698539    -0.67200
O169        O  0.19972322  0.75706218  0.75087497    -0.86500
C170        C  0.12370125  0.68539038  0.69475941     0.85700
C171        C  0.07805614  0.68291781  0.73262156     1.07300
H172        H  0.16032702  0.72003503  0.73309866     0.39100
O173        O  0.15507126  0.72785100  0.74577794    -1.09100
O174        O  0.15023600  0.76540040  0.75294169    -0.65800
Ni175      Ni  0.15240048  0.74827283  0.71986690     1.26300
O176        O  0.12384071  0.68733912  0.72381043    -0.66000
O177        O  0.18364609  0.76817883  0.71630612    -0.78300
C178        C  0.13858805  0.75983278  0.66756936     0.85100
O179        O  0.14766131  0.76722310  0.69326464    -0.65500
Ni180      Ni  0.17545173  0.73945612  0.77886573     1.27400
Ni181      Ni  0.12366041  0.70874294  0.75214782     1.26100
H182        H  0.11404609  0.73477409  0.73216015     0.39700
O183        O  0.06048896  0.80276739  0.50484040    -0.80300
O184        O  0.01869889  0.80073504  0.37744467    -0.65000
O185        O  0.05206638  0.79516085  0.44236047    -1.11600
C186        C  0.09130106  0.87434864  0.44100357     1.06600
O187        O  0.04873633  0.82865798  0.35636484    -0.78200
O188        O  0.08979640  0.84827310  0.37967180    -0.65800
Ni189      Ni  0.03780243  0.78036147  0.47880644     1.34900
C190        C  0.09746846  0.83637711  0.39002008     0.85300
O191        O  0.01744825  0.76546549  0.40579705    -0.78700
O192        O  0.01450130  0.75631438  0.45570874    -0.89000
C193        C  0.02890481  0.81243450  0.35427867     0.84900
O194        O  0.02034563  0.79436074  0.48430339    -0.67200
O195        O  0.07955097  0.87349628  0.41808525    -0.86500
C196        C  0.00761484  0.79602379  0.46506743     0.85700
C197        C  0.00914974  0.75132745  0.42759112     1.07300
H198        H  0.04289400  0.83267345  0.43219382     0.39100
O199        O  0.05168187  0.82850880  0.41992072    -1.09100
O200        O  0.09039924  0.82528977  0.41476125    -0.65800
Ni201      Ni  0.07174274  0.82606381  0.44708048     1.26300
O202        O  0.01025447  0.79521100  0.43639536    -0.66000
O203        O  0.09092015  0.85727248  0.45214049    -0.78300
C204        C  0.08149134  0.81263146  0.50112791     0.85100
O205        O  0.08991530  0.82150347  0.47560443    -0.65500
Ni206      Ni  0.06373370  0.85009802  0.38840672     1.27400
Ni207      Ni  0.03421698  0.79721789  0.41115837     1.26100
H208        H  0.06001633  0.78808658  0.43402029     0.39700
O209        O  0.86517807  0.60590040  0.83945404    -0.80300
O210        O  0.86282994  0.56133344  0.71428781    -0.65000
O211        O  0.87080652  0.60250999  0.77708780    -1.11600
C212        C  0.79137070  0.56351751  0.77789316     1.06600
O213        O  0.83607691  0.56514413  0.69257700    -0.78200
O214        O  0.81707121  0.58713140  0.71636577    -0.65800
Ni215      Ni  0.88701110  0.60504312  0.81299699     1.34900
C216        C  0.82933599  0.60673681  0.72640047     0.85300
O217        O  0.89913727  0.59534215  0.74079880    -0.78700
O218        O  0.91049126  0.60505781  0.78957112    -0.89000
C219        C  0.85188915  0.56095704  0.69078529     0.84900
O220        O  0.87416426  0.57411701  0.82087831    -0.67200
O221        O  0.79200449  0.55243791  0.75494611    -0.86500
C222        C  0.87101620  0.55859787  0.80265290     0.85700
C223        C  0.91407521  0.60240854  0.76163991     1.07300
H224        H  0.83209707  0.55542150  0.76913793     0.39100
O225        O  0.83659437  0.56852856  0.75633405    -1.09100
O226        O  0.84106523  0.61087598  0.75035962    -0.65800
Ni227      Ni  0.83998007  0.59168838  0.78277490     1.26300
O228        O  0.86935916  0.56008038  0.77385402    -0.66000
O229        O  0.80870764  0.58022469  0.78870986    -0.78300
C230        C  0.85452992  0.61620441  0.83532163     0.85100
O231        O  0.84531078  0.61506004  0.80998824    -0.65500
Ni232      Ni  0.81493978  0.55921022  0.72494024     1.27400
Ni233      Ni  0.86759162  0.58140193  0.74710082     1.26100
H234        H  0.87754895  0.61674835  0.76778681     0.39700
O235        O  0.92274001  0.73239257  0.99812755    -0.80300
O236        O  0.96618330  0.77764779  0.12242092    -0.65000
O237        O  0.93247782  0.73633021  0.06026267    -1.11600
C238        C  0.89182347  0.77515332  0.06096897     1.06600
O239        O  0.93606840  0.77456030  0.14497171    -0.78200
O240        O  0.89408254  0.75225313  0.12186166    -0.65800
Ni241      Ni  0.94597860  0.73394491  0.02396876     1.34900
C242        C  0.88688629  0.73274296  0.11153999     0.85300
O243        O  0.96802257  0.74290634  0.09609691    -0.78700
O244        O  0.96982894  0.73421066  0.04690234    -0.89000
C245        C  0.95630627  0.77930258  0.14596051     0.84900
O246        O  0.96325131  0.76499759  0.01567516    -0.67200
O247        O  0.90384000  0.78674622  0.08333852    -0.86500
C248        C  0.97563525  0.78060007  0.03373206     0.85700
C249        C  0.97563855  0.73569048  0.07496066     1.07300
H250        H  0.94100367  0.78340541  0.06850642     0.39100
O251        O  0.93254695  0.77051441  0.08127051    -1.09100
O252        O  0.89487192  0.72859181  0.08799014    -0.65800
Ni253      Ni  0.91262793  0.74732444  0.05516247     1.26300
O254        O  0.97331508  0.77852721  0.06270125    -0.66000
O255        O  0.89293561  0.75877085  0.04993847    -0.78300
C256        C  0.90194837  0.72160172  0.00345626     0.85100
O257        O  0.89420738  0.72365588  0.02860356    -0.65500
Ni258      Ni  0.92031771  0.78008044  0.11289650     1.27400
Ni259      Ni  0.95056282  0.75733558  0.09006487     1.26100
H260        H  0.92482812  0.72180921  0.06966519     0.39700
O261        O  0.05670434  0.59852254  0.17167031    -0.80300
O262        O  0.09830753  0.64215171  0.04488666    -0.65000
O263        O  0.05857965  0.60660109  0.10861395    -1.11600
C264        C  0.10074367  0.56928312  0.10723263     1.06600
O265        O  0.09917694  0.61370300  0.02267625    -0.78200
O266        O  0.07617922  0.57206026  0.04504509    -0.65800
Ni267      Ni  0.05529592  0.61973427  0.14485014     1.34900
C268        C  0.05687921  0.56258792  0.05680952     0.85300
O269        O  0.06332962  0.64224015  0.07273264    -0.78700
O270        O  0.05317437  0.64204463  0.12161403    -0.89000
C271        C  0.10185358  0.63320131  0.02167839     0.84900
O272        O  0.08601064  0.63931210  0.15252852    -0.67200
O273        O  0.11053262  0.58034712  0.08331535    -0.86500
C274        C  0.10127275  0.65187338  0.13424116     0.85700
C275        C  0.05550910  0.64906191  0.09411129     1.07300
H276        H  0.10640754  0.61790020  0.09885260     0.39100
O277        O  0.09342703  0.60871937  0.08656363    -1.09100
O278        O  0.05261108  0.56839940  0.08245137    -0.65800
Ni279      Ni  0.07136778  0.58821859  0.11424395     1.26300
O280        O  0.09954006  0.64887527  0.10533003    -0.66000
O281        O  0.08492069  0.57042424  0.12009601    -0.78300
C282        C  0.04763222  0.57759771  0.16847407     0.85100
O283        O  0.04894847  0.56936264  0.14316756    -0.65500
Ni284      Ni  0.10399379  0.59750662  0.05476333     1.27400
Ni285      Ni  0.07879236  0.62558841  0.07810789     1.26100
H286        H  0.04405085  0.59800497  0.09941662     0.39700
O287        O  0.93296364  0.53803378  0.33561479    -0.80300
O288        O  0.88432634  0.53464508  0.45758057    -0.65000
O289        O  0.92719433  0.54343788  0.39723105    -1.11600
C290        C  0.88953144  0.46397351  0.39534373     1.06600
O291        O  0.88768351  0.50764850  0.47988522    -0.78200
O292        O  0.91022036  0.48856435  0.45834322    -0.65800
Ni293      Ni  0.92990927  0.55913046  0.36083215     1.34900
C294        C  0.93007562  0.50143946  0.44993712     0.85300
O295        O  0.91848648  0.57162474  0.43202580    -0.78700
O296        O  0.92811974  0.58204582  0.38310256    -0.89000
C297        C  0.88403746  0.52384873  0.48117522     0.84900
O298        O  0.89898693  0.54437699  0.35137480    -0.67200
O299        O  0.87738216  0.46422037  0.41718637    -0.86500
C300        C  0.88278076  0.54110479  0.36828225     0.85700
C301        C  0.92558033  0.58630896  0.41077308     1.07300
H302        H  0.88054166  0.50420705  0.40272849     0.39100
O303        O  0.89301897  0.50878865  0.41634893    -1.09100
O304        O  0.93488791  0.51365800  0.42626742    -0.65800
Ni305      Ni  0.91726313  0.51274807  0.39180194     1.26300
O306        O  0.88391454  0.54081205  0.39739135    -0.66000
O307        O  0.90652433  0.48157040  0.38566912    -0.78300
C308        C  0.94449047  0.52891871  0.34155949     0.85100
O309        O  0.94213382  0.51903410  0.36674487    -0.65500
Ni310      Ni  0.88280006  0.48676097  0.44740444     1.27400
Ni311      Ni  0.90511492  0.53984961  0.42571144     1.26100
H312        H  0.94146378  0.55064078  0.40737965     0.39700
O313        O  0.71261917  0.55655832  0.19109421    -0.80300
O314        O  0.75725934  0.61024839  0.30930842    -0.65000
O315        O  0.71866227  0.56414871  0.25472241    -1.11600
C316        C  0.67921523  0.60320646  0.26256060     1.06600
O317        O  0.72834142  0.59959032  0.33902620    -0.78200
O318        O  0.68689899  0.57084480  0.32058823    -0.65800
Ni319      Ni  0.73066288  0.55429673  0.22291141     1.34900
C320        C  0.67511614  0.55523154  0.30220973     0.85300
O321        O  0.75808616  0.57526024  0.28810015    -0.78700
O322        O  0.74978042  0.55021513  0.25121719    -0.89000
C323        C  0.74907006  0.61158940  0.33453381     0.84900
O324        O  0.75443642  0.58282090  0.21109751    -0.67200
O325        O  0.68531868  0.60494916  0.29045990    -0.86500
C326        C  0.76303527  0.60208307  0.22286140     0.85700
C327        C  0.76055866  0.56034060  0.27522772     1.07300
H328        H  0.72774369  0.61311314  0.26749407     0.39100
O329        O  0.71965057  0.59854807  0.27672934    -1.09100
O330        O  0.67818781  0.55702791  0.27336826    -0.65800
Ni331      Ni  0.70115225  0.57822825  0.24645783     1.26300
O332        O  0.75745016  0.60565419  0.24915261    -0.66000
O333        O  0.68447219  0.59360424  0.24167731    -0.78300
C334        C  0.69369294  0.55525077  0.18986093     0.85100
O335        O  0.68483740  0.55886126  0.21310567    -0.65500
Ni336      Ni  0.70691591  0.60161827  0.31348973     1.27400
Ni337      Ni  0.73889868  0.58698273  0.28182851     1.26100
H338        H  0.70988736  0.55115982  0.26720954     0.39700
O339        O  0.81972774  0.77352466  0.64399835    -0.80300
O340        O  0.81438879  0.72663657  0.52097701    -0.65000
O341        O  0.82207490  0.77086608  0.57979597    -1.11600
C342        C  0.74476845  0.73932773  0.56842421     1.06600
O343        O  0.79617385  0.73832632  0.49252374    -0.78200
O344        O  0.78796314  0.76996890  0.51232395    -0.65800
Ni345      Ni  0.84187033  0.77811130  0.61355566     1.34900
C346        C  0.79146963  0.78489669  0.53173489     0.85300
O347        O  0.85072752  0.76032336  0.54690935    -0.78700
O348        O  0.86619046  0.78366128  0.58663018    -0.89000
C349        C  0.80524338  0.72645177  0.49573992     0.84900
O350        O  0.83649993  0.74904939  0.62180024    -0.67200
O351        O  0.74929559  0.73828291  0.54030546    -0.86500
C352        C  0.82591382  0.73029558  0.60868397     0.85700
C353        C  0.86756632  0.77481794  0.56172741     1.07300
H354        H  0.78081564  0.72362296  0.56281664     0.39100
O355        O  0.78834143  0.73855834  0.55471912    -1.09100
O356        O  0.79119863  0.78149603  0.56041758    -0.65800
Ni357      Ni  0.79064115  0.75844800  0.58612892     1.26300
O358        O  0.81727252  0.72778205  0.58212128    -0.66000
O359        O  0.75904706  0.74501150  0.58989542    -0.78300
C360        C  0.80394384  0.77783802  0.64422228     0.85100
O361        O  0.79369739  0.77725639  0.61993443    -0.65500
Ni362      Ni  0.77362849  0.73858900  0.51799985     1.27400
Ni363      Ni  0.81933521  0.74881677  0.55108477     1.26100
H364        H  0.82755574  0.78455196  0.56842969     0.39700
O365        O  0.76431066  0.82822960  0.85714981    -0.80300
O366        O  0.71230166  0.81800335  0.97559985    -0.65000
O367        O  0.75870738  0.82688810  0.92077696    -1.11600
C368        C  0.72410185  0.74923714  0.92631440     1.06600
O369        O  0.72222996  0.79877636  0.00500948    -0.78200
O370        O  0.75398508  0.79061336  0.98484344    -0.65800
Ni371      Ni  0.76835571  0.84879451  0.88961621     1.34900
C372        C  0.76923505  0.79323477  0.96650544     0.85300
O373        O  0.74681006  0.85478998  0.95392993    -0.78700
O374        O  0.77360671  0.87171366  0.91910063    -0.89000
C375        C  0.71125894  0.80868034  0.00096563     0.84900
O376        O  0.74010591  0.84522549  0.87945261    -0.67200
O377        O  0.72250545  0.75364562  0.95427964    -0.86500
C378        C  0.72049674  0.83360527  0.88979862     0.85700
C379        C  0.76270808  0.87230622  0.94227685     1.07300
H380        H  0.71014356  0.78594148  0.93273549     0.39100
O381        O  0.72476533  0.79285660  0.94183089    -1.09100
O382        O  0.76706311  0.79378570  0.93767174    -0.65800
Ni383      Ni  0.74555792  0.79565978  0.91135147     1.26300
O384        O  0.71624913  0.82288717  0.91491504    -0.66000
O385        O  0.73110120  0.76389477  0.90507382    -0.78300
C386        C  0.76741062  0.81168162  0.85515976     0.85100
O387        O  0.76548229  0.79982292  0.87833597    -0.65500
Ni388      Ni  0.72288389  0.77709254  0.97798443     1.27400
Ni389      Ni  0.73551979  0.82359992  0.94757173     1.26100
H390        H  0.77161412  0.83118960  0.93342216     0.39700
O391        O  0.55711948  0.72773582  0.31840904    -0.80300
O392        O  0.60541326  0.76857495  0.19685867    -0.65000
O393        O  0.56108634  0.73080537  0.25435740    -1.11600
C394        C  0.59790801  0.68948763  0.24646511     1.06600
O395        O  0.59521963  0.73895380  0.16843039    -0.78200
O396        O  0.56551830  0.69844417  0.19001069    -0.65800
Ni397      Ni  0.55174848  0.74325069  0.28603572     1.34900
C398        C  0.55058243  0.68619661  0.20904206     0.85300
O399        O  0.57003350  0.76870267  0.21924443    -0.78700
O400        O  0.54507340  0.75990701  0.25679513    -0.89000
C401        C  0.60590335  0.75997727  0.17152720     0.84900
O402        O  0.57992584  0.76853156  0.29497095    -0.67200
O403        O  0.59913587  0.69566374  0.21867262    -0.86500
C404        C  0.59907723  0.77655220  0.28313739     0.85700
C405        C  0.55432943  0.76999436  0.23203865     1.07300
H406        H  0.60986475  0.73995807  0.23997639     0.39100
O407        O  0.59504610  0.73157769  0.23154438    -1.09100
O408        O  0.55325911  0.68960176  0.23775109    -0.65800
Ni409      Ni  0.57529084  0.71357079  0.26300223     1.26300
O410        O  0.60245313  0.77014963  0.25735198    -0.66000
O411        O  0.59052263  0.69661793  0.26810867    -0.78300
C412        C  0.55415195  0.70817822  0.32034666     0.85100
O413        O  0.55644226  0.69829531  0.29720324    -0.65500
Ni414      Ni  0.59667852  0.71763805  0.19524978     1.27400
Ni415      Ni  0.58300769  0.75048605  0.22593338     1.26100
H416        H  0.54784312  0.72165561  0.24255857     0.39700
O417        O  0.50173056  0.61589367  0.53071773    -0.80300
O418        O  0.51234199  0.57553063  0.64798679    -0.65000
O419        O  0.50273174  0.61248285  0.59433571    -1.11600
C420        C  0.58020653  0.65781377  0.60090972     1.06600
O421        O  0.53217732  0.60399132  0.67863717    -0.78200
O422        O  0.53839432  0.64397458  0.66035131    -0.65800
Ni423      Ni  0.48089639  0.59987623  0.56308952     1.34900
C424        C  0.53457264  0.65593683  0.64232200     0.85300
O425        O  0.47555501  0.57294907  0.62656699    -0.78700
O426        O  0.45799622  0.58302285  0.59300201    -0.89000
C427        C  0.52200277  0.58319679  0.67330865     0.84900
O428        O  0.48380826  0.57452103  0.55397072    -0.67200
O429        O  0.57589597  0.65164426  0.62882705    -0.86500
C430        C  0.49594508  0.56701170  0.56392448     0.85700
C431        C  0.45790067  0.57165113  0.61597311     1.07300
H432        H  0.54445473  0.60620853  0.60615480     0.39100
O433        O  0.53727721  0.61357262  0.61556343    -1.09100
O434        O  0.53439867  0.65362482  0.61327984    -0.65800
Ni435      Ni  0.53380082  0.63134715  0.58560224     1.26300
O436        O  0.50772497  0.57466571  0.58802083    -0.66000
O437        O  0.56552686  0.64978904  0.57968948    -0.78300
C438        C  0.51724630  0.63610368  0.52921728     0.85100
O439        O  0.52869491  0.64646882  0.55266848    -0.65500
Ni440      Ni  0.55300621  0.62748616  0.65200995     1.27400
Ni441      Ni  0.50657294  0.59305294  0.62070033     1.26100
H442        H  0.49796826  0.62066365  0.60710278     0.39700
O443        O  0.60363938  0.50766657  0.97684288    -0.80300
O444        O  0.56557488  0.51310073  0.85471865    -0.65000
O445        O  0.60180396  0.50580904  0.91301026    -1.11600
C446        C  0.64645672  0.58345024  0.90163665     1.06600
O447        O  0.59512304  0.53112765  0.82555473    -0.78200
O448        O  0.63531282  0.54057734  0.84610652    -0.65800
Ni449      Ni  0.58829994  0.48529019  0.94574644     1.34900
C450        C  0.64683999  0.53724761  0.86548470     0.85300
O451        O  0.56276540  0.47739678  0.88069700    -0.78700
O452        O  0.57221309  0.46109789  0.91713710    -0.89000
C453        C  0.57414417  0.52148520  0.82913657     0.84900
O454        O  0.56234412  0.48803958  0.95168576    -0.67200
O455        O  0.64086432  0.57866876  0.87358738    -0.86500
C456        C  0.55568132  0.50017141  0.93919658     0.85700
C457        C  0.56112286  0.46016346  0.89335537     1.07300
H458        H  0.59578564  0.54691362  0.89582594     0.39100
O459        O  0.60334179  0.53946821  0.88783631    -1.09100
O460        O  0.64348871  0.53709335  0.89428142    -0.65800
Ni461      Ni  0.62052234  0.53724110  0.91975996     1.26300
O462        O  0.56440025  0.51123836  0.91494740    -0.66000
O463        O  0.63860621  0.56913394  0.92336021    -0.78300
C464        C  0.62401343  0.52282357  0.97862977     0.85100
O465        O  0.63495056  0.53355294  0.95500332    -0.65500
Ni466      Ni  0.61757583  0.55408568  0.85111818     1.27400
Ni467      Ni  0.58287852  0.50856950  0.88434090     1.26100
H468        H  0.61022968  0.50056709  0.90177151     0.39700
O469        O  0.45920409  0.40279769  0.33344670    -0.80300
O470        O  0.46257646  0.35906212  0.45679745    -0.65000
O471        O  0.45404087  0.39313994  0.39597534    -1.11600
C472        C  0.53313471  0.43767509  0.39814024     1.06600
O473        O  0.48871908  0.38881804  0.48116351    -0.78200
O474        O  0.50300929  0.43050509  0.46138909    -0.65800
Ni475      Ni  0.43749210  0.37993205  0.35985108     1.34900
C476        C  0.49188535  0.43828221  0.44879037     0.85300
O477        O  0.42598373  0.35646472  0.43113938    -0.78700
O478        O  0.41401786  0.35647726  0.38324751    -0.89000
C479        C  0.47338650  0.36850495  0.48099144     0.84900
O480        O  0.44961329  0.36135826  0.35030980    -0.67200
O481        O  0.53277810  0.42732847  0.42242760    -0.86500
C482        C  0.45395263  0.34941250  0.36763889     0.85700
C483        C  0.41066292  0.34949444  0.41085047     1.07300
H484        H  0.49411884  0.38669294  0.40485328     0.39100
O485        O  0.48880991  0.39453671  0.41715656    -1.09100
O486        O  0.48316289  0.43219073  0.42246714    -0.65800
Ni487      Ni  0.48470102  0.41395059  0.39053234     1.26300
O488        O  0.45682044  0.35296546  0.39645587    -0.66000
O489        O  0.51563013  0.43455743  0.38464394    -0.78300
C490        C  0.46896029  0.42363378  0.33845454     0.85100
O491        O  0.47868013  0.43154765  0.36356287    -0.65500
Ni492      Ni  0.50948754  0.40761826  0.45020696     1.27400
Ni493      Ni  0.45762334  0.37500904  0.42507984     1.26100
H494        H  0.44695666  0.40038319  0.40618290     0.39700
O495        O  0.39775200  0.46955691  0.17436681    -0.80300
O496        O  0.35572389  0.47070387  0.04944242    -0.65000
O497        O  0.39054697  0.46457509  0.11156197    -1.11600
C498        C  0.42869011  0.54409299  0.11372552     1.06600
O499        O  0.38487608  0.49924332  0.02773089    -0.78200
O500        O  0.42635179  0.51781666  0.05012076    -0.65800
Ni501      Ni  0.37666231  0.44731845  0.14690443     1.34900
C502        C  0.43522070  0.50710755  0.06081636     0.85300
O503        O  0.35590064  0.43537646  0.07415246    -0.78700
O504        O  0.35456675  0.42333810  0.12231319    -0.89000
C505        C  0.36518942  0.48263214  0.02618350     0.84900
O506        O  0.35714392  0.45845274  0.15543617    -0.67200
O507        O  0.41781843  0.54343796  0.08983220    -0.86500
C508        C  0.34559200  0.46278925  0.13744425     0.85700
C509        C  0.34881272  0.41991775  0.09416338     1.07300
H510        H  0.38021335  0.50195888  0.10392165     0.39100
O511        O  0.38923280  0.49812490  0.09133197    -1.09100
O512        O  0.42915113  0.49661891  0.08616477    -0.65800
Ni513      Ni  0.40932673  0.49555560  0.11830254     1.26300
O514        O  0.34886879  0.46435055  0.10864743    -0.66000
O515        O  0.42748078  0.52673438  0.12532411    -0.78300
C516        C  0.41876717  0.48098932  0.17164415     0.85100
O517        O  0.42746492  0.49095425  0.14678748    -0.65500
Ni518      Ni  0.40090217  0.52017425  0.06021983     1.27400
Ni519      Ni  0.37217195  0.46696563  0.08156306     1.26100
H520        H  0.39894900  0.45855560  0.10197572     0.39700
O521        O  0.19579241  0.27040304  0.51244419    -0.80300
O522        O  0.19680660  0.23000259  0.38422352    -0.65000
O523        O  0.20312588  0.26956893  0.44935187    -1.11600
C524        C  0.12408599  0.23329731  0.44482029     1.06600
O525        O  0.17037767  0.23382716  0.36131804    -0.78200
O526        O  0.15321022  0.25787465  0.38454721    -0.65800
Ni527      Ni  0.21818714  0.27051658  0.48611873     1.34900
C528        C  0.16419169  0.27689268  0.39697572     0.85300
O529        O  0.23240404  0.26322272  0.41366308    -0.78700
O530        O  0.24232145  0.27152086  0.46314643    -0.89000
C531        C  0.18629309  0.22969579  0.36023309     0.84900
O532        O  0.20478375  0.23927249  0.49211637    -0.67200
O533        O  0.12491598  0.22313997  0.42091391    -0.86500
C534        C  0.20093240  0.22404273  0.47303345     0.85700
C535        C  0.24683904  0.27006026  0.43518528     1.07300
H536        H  0.16408961  0.22335266  0.43709074     0.39100
O537        O  0.16926129  0.23683955  0.42537588    -1.09100
O538        O  0.17397777  0.27993165  0.42267730    -0.65800
Ni539      Ni  0.17232861  0.25916841  0.45360591     1.26300
O540        O  0.20059425  0.22689762  0.44427533    -0.66000
O541        O  0.14129831  0.24823895  0.45826642    -0.78300
C542        C  0.18616452  0.28164102  0.50848583     0.85100
O543        O  0.17744684  0.28135052  0.48293989    -0.65500
Ni544      Ni  0.14868630  0.22897657  0.39266440     1.27400
Ni545      Ni  0.20059493  0.24939254  0.41808364     1.26100
H546        H  0.21041183  0.28439212  0.44086924     0.39700
O547        O  0.26209213  0.40467124  0.66628035    -0.80300
O548        O  0.30241112  0.44533184  0.79410325    -0.65000
O549        O  0.26936412  0.40555469  0.72954500    -1.11600
C550        C  0.22961397  0.44497605  0.72890904     1.06600
O551        O  0.27260368  0.44373174  0.81569360    -0.78200
O552        O  0.23132149  0.42000509  0.79161893    -0.65800
Ni553      Ni  0.28313876  0.40317613  0.69347046     1.34900
C554        C  0.22331033  0.40076492  0.77981945     0.85300
O555        O  0.30440583  0.41114800  0.76645967    -0.78700
O556        O  0.30486291  0.40090094  0.71762164    -0.89000
C557        C  0.29253781  0.44759723  0.81724519     0.84900
O558        O  0.30281241  0.43403140  0.68692165    -0.67200
O559        O  0.24000855  0.45482988  0.75329287    -0.86500
C560        C  0.31454720  0.44934521  0.70570097     0.85700
C561        C  0.31134984  0.40319814  0.74541227     1.07300
H562        H  0.27839994  0.45259046  0.73971574     0.39100
O563        O  0.26948174  0.43941050  0.75165392    -1.09100
O564        O  0.23051991  0.39727512  0.75486445    -0.65800
Ni565      Ni  0.25010326  0.41706980  0.72367369     1.26300
O566        O  0.31060231  0.44736632  0.73437762    -0.66000
O567        O  0.23116347  0.42915859  0.71700727    -0.78300
C568        C  0.24116758  0.39385127  0.66975493     0.85100
O569        O  0.23261805  0.39460899  0.69494470    -0.65500
Ni570      Ni  0.25666617  0.44846330  0.78306171     1.27400
Ni571      Ni  0.28712784  0.42580284  0.76056171     1.26100
H572        H  0.26119000  0.39086571  0.73847439     0.39700
O573        O  0.25962238  0.19973167  0.99711750    -0.80300
O574        O  0.21951213  0.20617216  0.12235907    -0.65000
O575        O  0.25878645  0.20976575  0.05873176    -1.11600
C576        C  0.22051028  0.13066882  0.06590639     1.06600
O577        O  0.22185223  0.17931259  0.14692578    -0.78200
O578        O  0.24515920  0.16039082  0.12590386    -0.65800
Ni579      Ni  0.26000186  0.22336393  0.02082005     1.34900
C580        C  0.26442446  0.17180426  0.11428529     0.85300
O581        O  0.25392164  0.24070697  0.09186385    -0.78700
O582        O  0.26160359  0.24855548  0.04171171    -0.89000
C583        C  0.21838093  0.19569825  0.14679783     0.84900
O584        O  0.22872335  0.20991210  0.01453624    -0.67200
O585        O  0.21000666  0.13219094  0.08897419    -0.86500
C586        C  0.21401237  0.20811637  0.03324893     0.85700
C587        C  0.26125826  0.25443164  0.06939121     1.07300
H588        H  0.21209047  0.17201706  0.07086893     0.39100
O589        O  0.22525543  0.17698820  0.08309084    -1.09100
O590        O  0.26784935  0.18175544  0.08882555    -0.65800
Ni591      Ni  0.24787945  0.17888764  0.05645893     1.26300
O592        O  0.21699590  0.20928851  0.06209814    -0.66000
O593        O  0.23656053  0.14759923  0.05348164    -0.78300
C594        C  0.27107858  0.19051835  0.00277244     0.85100
O595        O  0.27065712  0.18280713  0.02904262    -0.65500
Ni596      Ni  0.21660926  0.15679210  0.11653057     1.27400
Ni597      Ni  0.23880103  0.20864071  0.08909702     1.26100
H598        H  0.27364864  0.21719664  0.06723650     0.39700
O599        O  0.38921875  0.26582388  0.84105503    -0.80300
O600        O  0.43181834  0.30838949  0.71426303    -0.65000
O601        O  0.39207877  0.27512615  0.77884207    -1.11600
C602        C  0.43036693  0.23389011  0.77560279     1.06600
O603        O  0.42680609  0.27734482  0.69256326    -0.78200
O604        O  0.40523599  0.23613261  0.71614716    -0.65800
Ni605      Ni  0.39033551  0.28884013  0.81521353     1.34900
C606        C  0.38604172  0.22907894  0.72748863     0.85300
O607        O  0.39814075  0.31039926  0.74291817    -0.78700
O608        O  0.39044763  0.31263418  0.79245349    -0.89000
C609        C  0.43201008  0.29768495  0.69067487     0.84900
O610        O  0.42143696  0.30592062  0.82227695    -0.67200
O611        O  0.44092959  0.24541781  0.75228104    -0.86500
C612        C  0.43667377  0.31851871  0.80396714     0.85700
C613        C  0.39158315  0.31828909  0.76440232     1.07300
H614        H  0.43880716  0.28325116  0.76810651     0.39100
O615        O  0.42549700  0.27476358  0.75610449    -1.09100
O616        O  0.38279090  0.23706781  0.75170910    -0.65800
Ni617      Ni  0.40291702  0.25508506  0.78332279     1.26300
O618        O  0.43432666  0.31602373  0.77496643    -0.66000
O619        O  0.41436478  0.23518528  0.78773819    -0.78300
C620        C  0.37850692  0.24492487  0.83644477     0.85100
O621        O  0.38001276  0.23695810  0.81117355    -0.65500
Ni622      Ni  0.43353080  0.26194700  0.72364648     1.27400
Ni623      Ni  0.41246818  0.29300915  0.74811327     1.26100
H624        H  0.37736453  0.26750362  0.76998499     0.39700
O625        O  0.53042919  0.93804440  0.17759024    -0.80300
O626        O  0.52957077  0.89663126  0.04710687    -0.65000
O627        O  0.53560698  0.93474448  0.11392881    -1.11600
C628        C  0.45636072  0.89554870  0.11051985     1.06600
O629        O  0.50239546  0.89985530  0.02535024    -0.78200
O630        O  0.48383410  0.92205519  0.05095841    -0.65800
Ni631      Ni  0.55022561  0.93414641  0.15025214     1.34900
C632        C  0.49538199  0.94111766  0.06317222     0.85300
O633        O  0.56490927  0.92972906  0.07692419    -0.78700
O634        O  0.57267400  0.93175935  0.12703996    -0.89000
C635        C  0.51806456  0.89544911  0.02375221     0.84900
O636        O  0.53245069  0.90275279  0.15503330    -0.67200
O637        O  0.45726788  0.88569254  0.08642420    -0.86500
C638        C  0.53155404  0.88864885  0.13589259     0.85700
C639        C  0.57844016  0.93345811  0.09892198     1.07300
H640        H  0.49730073  0.88812076  0.10086538     0.39100
O641        O  0.50199711  0.90159609  0.08954933    -1.09100
O642        O  0.50623348  0.94411378  0.08781289    -0.65800
Ni643      Ni  0.50469896  0.92334431  0.11830983     1.26300
O644        O  0.53420668  0.89272237  0.10723548    -0.66000
O645        O  0.47352753  0.91135264  0.12303272    -0.78300
C646        C  0.51867619  0.94711125  0.17306102     0.85100
O647        O  0.50904266  0.94520210  0.14774425    -0.65500
Ni648      Ni  0.48091672  0.89347659  0.05733913     1.27400
Ni649      Ni  0.53322227  0.91518320  0.08174261     1.26100
H650        H  0.54285639  0.94991874  0.10627030     0.39700
O651        O  0.59591174  0.06844009  0.32803685    -0.80300
O652        O  0.63719110  0.11335252  0.45433689    -0.65000
O653        O  0.60388164  0.07226859  0.39158172    -1.11600
C654        C  0.56278753  0.11051718  0.39112343     1.06600
O655        O  0.60763705  0.11194001  0.47635137    -0.78200
O656        O  0.56611920  0.08726039  0.45382513    -0.65800
Ni657      Ni  0.61833003  0.07008505  0.35595538     1.34900
C658        C  0.55807555  0.06799485  0.44219399     0.85300
O659        O  0.63857261  0.07854380  0.42918754    -0.78700
O660        O  0.64159053  0.07033649  0.38026742    -0.89000
C661        C  0.62773605  0.11640041  0.47714660     0.84900
O662        O  0.63564287  0.10122470  0.34847199    -0.67200
O663        O  0.57341456  0.12098995  0.41495007    -0.86500
C664        C  0.64775775  0.11671908  0.36690317     0.85700
C665        C  0.64676875  0.07167017  0.40855197     1.07300
H666        H  0.61253598  0.11947717  0.40041797     0.39100
O667        O  0.60377485  0.10645051  0.41264462    -1.09100
O668        O  0.56514862  0.06433122  0.41717605    -0.65800
Ni669      Ni  0.58443497  0.08358525  0.38530932     1.26300
O670        O  0.64494112  0.11444162  0.39571171    -0.66000
O671        O  0.56519366  0.09529940  0.37874074    -0.78300
C672        C  0.57497839  0.05878471  0.33197789     0.85100
O673        O  0.56687628  0.06061635  0.35706282    -0.65500
Ni674      Ni  0.59100891  0.11570239  0.44408859     1.27400
Ni675      Ni  0.62153098  0.09308944  0.42210360     1.26100
H676        H  0.59583559  0.05761468  0.40080522     0.39700
O677        O  0.79034112  0.06828512  0.99657276    -0.80300
O678        O  0.79437522  0.02806168  0.12350741    -0.65000
O679        O  0.78572958  0.06047054  0.05954467    -1.11600
C680        C  0.86498376  0.10116481  0.05748075     1.06600
O681        O  0.82164131  0.05875384  0.14431105    -0.78200
O682        O  0.83942591  0.09949505  0.12023627    -0.65800
Ni683      Ni  0.76941869  0.04578019  0.02405379     1.34900
C684        C  0.82750918  0.10705953  0.10969834     0.85300
O685        O  0.75771263  0.02498910  0.09710581    -0.78700
O686        O  0.74659424  0.02226069  0.04820963    -0.89000
C687        C  0.80615435  0.03862383  0.14658107     0.84900
O688        O  0.78368971  0.02891859  0.01666439    -0.67200
O689        O  0.86466352  0.09013917  0.08096198    -0.86500
C690        C  0.78705746  0.01664758  0.03472589     0.85700
C691        C  0.74279377  0.01648888  0.07630544     1.07300
H692        H  0.82460667  0.05276299  0.06776169     0.39100
O693        O  0.82018184  0.06136963  0.08022745    -1.09100
O694        O  0.81639155  0.09996403  0.08495089    -0.65800
Ni695      Ni  0.81646735  0.08070947  0.05288972     1.26300
O696        O  0.78782965  0.01946257  0.06366198    -0.66000
O697        O  0.84759042  0.10015805  0.04622243    -0.78300
C698        C  0.80012229  0.08931282  0.99964009     0.85100
O699        O  0.81055525  0.09822262  0.02424606    -0.65500
Ni700      Ni  0.84213211  0.07401934  0.11131957     1.27400
Ni701      Ni  0.78927320  0.04291110  0.09010123     1.26100
H702        H  0.77883348  0.06820500  0.06877511     0.39700
O703        O  0.72743822  0.13675745  0.83489416    -0.80300
O704        O  0.68472038  0.13935394  0.70988318    -0.65000
O705        O  0.71772754  0.13122408  0.77256109    -1.11600
C706        C  0.75889095  0.21065996  0.77364561     1.06600
O707        O  0.71533509  0.16658199  0.68873097    -0.78200
O708        O  0.75671440  0.18548747  0.71156232    -0.65800
Ni709      Ni  0.70358371  0.11573142  0.80877975     1.34900
C710        C  0.76355179  0.17265372  0.72089781     0.85300
O711        O  0.68270443  0.10303645  0.73620012    -0.78700
O712        O  0.67914623  0.09268910  0.78572098    -0.89000
C713        C  0.69512815  0.15111439  0.68686816     0.84900
O714        O  0.68752627  0.13091985  0.81617018    -0.67200
O715        O  0.74731333  0.21054766  0.75093450    -0.86500
C716        C  0.67465015  0.13322762  0.79789108     0.85700
C717        C  0.67426095  0.08842753  0.75739822     1.07300
H718        H  0.70997586  0.17008672  0.76488402     0.39100
O719        O  0.71831439  0.16567607  0.75202991    -1.09100
O720        O  0.75569450  0.16065408  0.74464155    -0.65800
Ni721      Ni  0.73809498  0.16191478  0.77784527     1.26300
O722        O  0.67686286  0.13287604  0.76904012    -0.66000
O723        O  0.75809470  0.19304196  0.78357868    -0.78300
C724        C  0.74824200  0.14621281  0.82954370     0.85100
O725        O  0.75617687  0.15604333  0.80441582    -0.65500
Ni726      Ni  0.73089439  0.18763480  0.72090377     1.27400
Ni727      Ni  0.70008037  0.13460350  0.74252726     1.26100
H728        H  0.72520121  0.12393158  0.76330164     0.39700
O729        O  0.72756895  0.93634959  0.51018266    -0.80300
O730        O  0.76776970  0.98044992  0.38289732    -0.65000
O731        O  0.72984834  0.94526024  0.44768349    -1.11600
C732        C  0.77146799  0.90766885  0.44558389     1.06600
O733        O  0.77060621  0.95285179  0.36127329    -0.78200
O734        O  0.74753218  0.91081791  0.38319215    -0.65800
Ni735      Ni  0.72781849  0.95883305  0.48422010     1.34900
C736        C  0.72837957  0.90174481  0.39534321     0.85300
O737        O  0.73259354  0.97890269  0.41161740    -0.78700
O738        O  0.72694044  0.98220458  0.46157654    -0.89000
C739        C  0.77142322  0.97158683  0.35977697     0.84900
O740        O  0.75901071  0.97616104  0.49069958    -0.67200
O741        O  0.78172199  0.91902461  0.42200578    -0.86500
C742        C  0.77336114  0.98954698  0.47204037     0.85700
C743        C  0.72645208  0.98691868  0.43342896     1.07300
H744        H  0.77785501  0.95724760  0.43732212     0.39100
O745        O  0.76492643  0.94789059  0.42516234    -1.09100
O746        O  0.72439402  0.90804290  0.42069304    -0.65800
Ni747      Ni  0.74287897  0.92725680  0.45263656     1.26300
O748        O  0.77015171  0.98791801  0.44317460    -0.66000
O749        O  0.75597403  0.90923103  0.45838875    -0.78300
C750        C  0.71769731  0.91555929  0.50516661     0.85100
O751        O  0.72019822  0.90808886  0.48005723    -0.65500
Ni752      Ni  0.77532054  0.93642819  0.39334562     1.27400
Ni753      Ni  0.74932046  0.96385833  0.41673418     1.26100
H754        H  0.71506871  0.93658821  0.43920104     0.39700
O755        O  0.59517142  0.87309810  0.66067954    -0.80300
O756        O  0.55097807  0.87301314  0.78640045    -0.65000
O757        O  0.59154370  0.87906464  0.72316703    -1.11600
C758        C  0.55294363  0.79947750  0.72536450     1.06600
O759        O  0.55383485  0.84595785  0.80901014    -0.78200
O760        O  0.57753964  0.82801691  0.78776930    -0.65800
Ni761      Ni  0.59376742  0.89482761  0.68662232     1.34900
C762        C  0.59660298  0.83887989  0.77552263     0.85300
O763        O  0.58492096  0.90850123  0.75827645    -0.78700
O764        O  0.59340207  0.91855005  0.70901410    -0.89000
C765        C  0.55032924  0.86227584  0.81032474     0.84900
O766        O  0.56275935  0.88090595  0.67868100    -0.67200
O767        O  0.54312660  0.80052019  0.74951930    -0.86500
C768        C  0.54718644  0.87760026  0.69679762     0.85700
C769        C  0.59167546  0.92300617  0.73686984     1.07300
H770        H  0.54448777  0.84046547  0.73328025     0.39100
O771        O  0.55769394  0.84527657  0.74541394    -1.09100
O772        O  0.59981866  0.84872558  0.74993102    -0.65800
Ni773      Ni  0.58031028  0.84804007  0.71818180     1.26300
O774        O  0.54931245  0.87752299  0.72578855    -0.66000
O775        O  0.56833287  0.81673867  0.71247122    -0.78300
C776        C  0.60549608  0.86260150  0.66554386     0.85100
O777        O  0.60336792  0.85278404  0.69065567    -0.65500
Ni778      Ni  0.54905088  0.82432151  0.77788656     1.27400
Ni779      Ni  0.57077892  0.87668520  0.75329813     1.26100
H780        H  0.60615953  0.88591089  0.73242018     0.39700
O781        O  0.16596988  0.94788506  0.85907660    -0.80300
O782        O  0.17110594  0.90519041  0.97737014    -0.65000
O783        O  0.16365505  0.94343410  0.92262446    -1.11600
C784        C  0.24103692  0.98797383  0.93508016     1.06600
O785        O  0.18809688  0.93401789  0.00818123    -0.78200
O786        O  0.19712397  0.97492388  0.99079630    -0.65800
Ni787      Ni  0.14339891  0.93141617  0.88947375     1.34900
C788        C  0.19407033  0.98702160  0.97204773     0.85300
O789        O  0.13502492  0.90288905  0.95197587    -0.78700
O790        O  0.11904043  0.91416373  0.91745374    -0.89000
C791        C  0.17959673  0.91324719  0.00321648     0.84900
O792        O  0.14641422  0.90601663  0.88092739    -0.67200
O793        O  0.23601189  0.98191979  0.96299643    -0.86500
C794        C  0.15863663  0.89886222  0.89168296     0.85700
C795        C  0.11786118  0.90210830  0.94023431     1.07300
H796        H  0.20495791  0.93716129  0.93827986     0.39100
O797        O  0.19718643  0.94428899  0.94687460    -1.09100
O798        O  0.19467772  0.98464487  0.94316248    -0.65800
Ni799      Ni  0.19508683  0.96241606  0.91643395     1.26300
O800        O  0.16945247  0.90622272  0.91656235    -0.66000
O801        O  0.22684302  0.98047775  0.91324886    -0.78300
C802        C  0.18150355  0.96816155  0.85861467     0.85100
O803        O  0.19187051  0.97818791  0.88280030    -0.65500
Ni804      Ni  0.21122864  0.95768589  0.98428269     1.27400
Ni805      Ni  0.16633317  0.92334629  0.94925941     1.26100
H806        H  0.15836306  0.95134455  0.93488977     0.39700
O807        O  0.26925081  0.84004884  0.30847510    -0.80300
O808        O  0.23060471  0.84791765  0.18771867    -0.65000
O809        O  0.26697956  0.83942931  0.24435215    -1.11600
C810        C  0.31210025  0.91692401  0.23489325     1.06600
O811        O  0.25999256  0.86593770  0.15830205    -0.78200
O812        O  0.29976972  0.87396796  0.17921799    -0.65800
Ni813      Ni  0.25397726  0.81821773  0.27645360     1.34900
C814        C  0.31212481  0.87179743  0.19854979     0.85300
O815        O  0.22755292  0.81149263  0.21231182    -0.78700
O816        O  0.23765692  0.79455462  0.24704674    -0.89000
C817        C  0.23921566  0.85738754  0.16255257     0.84900
O818        O  0.22794474  0.82042581  0.28352950    -0.67200
O819        O  0.30637117  0.91226035  0.20687774    -0.86500
C820        C  0.22097624  0.83260792  0.27213378     0.85700
C821        C  0.22585883  0.79403965  0.22429872     1.07300
H822        H  0.26077111  0.88083970  0.22884345     0.39100
O823        O  0.26830659  0.87345255  0.22063488    -1.09100
O824        O  0.30879773  0.87153100  0.22718394    -0.65800
Ni825      Ni  0.28541337  0.87077566  0.25213129     1.26300
O826        O  0.22953019  0.84446131  0.24832746    -0.66000
O827        O  0.30354806  0.90263086  0.25658862    -0.78300
C828        C  0.28911090  0.85638160  0.31012450     0.85100
O829        O  0.29986961  0.86662567  0.28631098    -0.65500
Ni830      Ni  0.28276514  0.88826231  0.18412885     1.27400
Ni831      Ni  0.24784666  0.84259062  0.21653481     1.26100
H832        H  0.27549773  0.83459013  0.23246298     0.39700
O833        O  0.38136925  0.89796145  0.51957855    -0.80300
O834        O  0.42342839  0.94682343  0.63771260    -0.65000
O835        O  0.38475074  0.90111025  0.58304399    -1.11600
C836        C  0.34108397  0.93465926  0.59437559     1.06600
O837        O  0.39505711  0.93683171  0.66854264    -0.78200
O838        O  0.35516175  0.90445552  0.64917023    -0.65800
Ni839      Ni  0.39667935  0.89161344  0.55111362     1.34900
C840        C  0.34189887  0.88953747  0.63085775     0.85300
O841        O  0.42419359  0.91181318  0.61432973    -0.78700
O842        O  0.41287382  0.88418113  0.58036471    -0.89000
C843        C  0.41573902  0.94847911  0.66326988     0.84900
O844        O  0.42271126  0.91947494  0.54216442    -0.67200
O845        O  0.34778421  0.93567106  0.62182491    -0.86500
C846        C  0.43029230  0.93898452  0.55271043     0.85700
C847        C  0.42462112  0.89506579  0.60336342     1.07300
H848        H  0.39269656  0.94960324  0.59756608     0.39100
O849        O  0.38502091  0.93474693  0.60616520    -1.09100
O850        O  0.34367543  0.89221304  0.60194131    -0.65800
Ni851      Ni  0.36661334  0.91441757  0.57552730     1.26300
O852        O  0.42297918  0.94293848  0.57728348    -0.66000
O853        O  0.34868577  0.92861715  0.57175203    -0.78300
C854        C  0.36151911  0.89426654  0.51806207     0.85100
O855        O  0.35122845  0.89536368  0.54159285    -0.65500
Ni856      Ni  0.37176064  0.93575143  0.64342672     1.27400
Ni857      Ni  0.40488538  0.92369404  0.60993101     1.26100
H858        H  0.37628584  0.88806474  0.59545106     0.39700
O859        O  0.48530755  0.10613791  0.97430991    -0.80300
O860        O  0.47761707  0.05502842  0.85505522    -0.65000
O861        O  0.48437658  0.10049563  0.91067885    -1.11600
C862        C  0.40641985  0.06374181  0.90488035     1.06600
O863        O  0.45715591  0.06383291  0.82617747    -0.78200
O864        O  0.44695312  0.09454606  0.84627647    -0.65800
Ni865      Ni  0.50623247  0.11087546  0.94199192     1.34900
C866        C  0.44964639  0.10978759  0.86479246     0.85300
O867        O  0.51334203  0.09027347  0.87730418    -0.78700
O868        O  0.52947208  0.11695717  0.91262904    -0.89000
C869        C  0.46885815  0.05453675  0.82941525     0.84900
O870        O  0.50361252  0.08300872  0.95229224    -0.67200
O871        O  0.41077550  0.06194688  0.87695466    -0.86500
C872        C  0.49290095  0.06345339  0.94141675     0.85700
C873        C  0.53048288  0.10643203  0.88927259     1.07300
H874        H  0.44465854  0.05139072  0.89852163     0.39100
O875        O  0.45106788  0.06597697  0.88939232    -1.09100
O876        O  0.45073003  0.10774899  0.89356090    -0.65800
Ni877      Ni  0.45305740  0.08650797  0.91986326     1.26300
O878        O  0.48255570  0.05896141  0.91593320    -0.66000
O879        O  0.42120709  0.07128136  0.92597561    -0.78300
C880        C  0.46826269  0.10845045  0.97613068     0.85100
O881        O  0.45644198  0.10623706  0.95281087    -0.65500
Ni882      Ni  0.43490811  0.06346815  0.85331297     1.27400
Ni883      Ni  0.48206223  0.07778956  0.88359398     1.26100
H884        H  0.48832752  0.11337207  0.89809490     0.39700
O885        O  0.21932193  0.05645106  0.64485391    -0.80300
O886        O  0.26860539  0.09621753  0.52451695    -0.65000
O887        O  0.22294589  0.05906225  0.58095181    -1.11600
C888        C  0.25629645  0.01510908  0.57547384     1.06600
O889        O  0.25766012  0.06603218  0.49700470    -0.78200
O890        O  0.22606128  0.02668321  0.51775284    -0.65800
Ni891      Ni  0.21343954  0.07148570  0.61206355     1.34900
C892        C  0.21126737  0.01451991  0.53688859     0.85300
O893        O  0.23378962  0.09792482  0.54745010    -0.78700
O894        O  0.20647382  0.08749325  0.58189676    -0.89000
C895        C  0.26957654  0.08701826  0.49991777     0.84900
O896        O  0.24148799  0.09724443  0.62047467    -0.67200
O897        O  0.25738060  0.02018465  0.54715491    -0.86500
C898        C  0.26099456  0.10470211  0.60999243     0.85700
C899        C  0.21736185  0.09886460  0.55865295     1.07300
H900        H  0.27137991  0.06656069  0.56766756     0.39100
O901        O  0.25655712  0.05866542  0.55920551    -1.09100
O902        O  0.21429793  0.01751440  0.56552308    -0.65800
Ni903      Ni  0.23634067  0.04136438  0.59045769     1.26300
O904        O  0.26500324  0.09756545  0.58530585    -0.66000
O905        O  0.25063858  0.02412882  0.59651321    -0.78300
C906        C  0.21599665  0.03672337  0.64726603     0.85100
O907        O  0.21711730  0.02628657  0.62413275    -0.65500
Ni908      Ni  0.25729487  0.04368426  0.52349419     1.27400
Ni909      Ni  0.24558628  0.07856831  0.55334947     1.26100
H910        H  0.20986437  0.05017991  0.56866589     0.39700
O911        O  0.43209967  0.16030211  0.19023019    -0.80300
O912        O  0.38458820  0.15398835  0.31163918    -0.65000
O913        O  0.42844539  0.16012136  0.25427428    -1.11600
C914        C  0.39041170  0.08191579  0.26054664     1.06600
O915        O  0.39234611  0.13270489  0.34022796    -0.78200
O916        O  0.42211814  0.12211886  0.31888204    -0.65800
Ni917      Ni  0.43762926  0.18174682  0.22243503     1.34900
C918        C  0.43716232  0.12485070  0.30007997     0.85300
O919        O  0.41994503  0.18932674  0.28906429    -0.78700
O920        O  0.44465607  0.20571885  0.25145782    -0.89000
C921        C  0.38242370  0.14366215  0.33635578     0.84900
O922        O  0.40934399  0.17893080  0.21403986    -0.67200
O923        O  0.38906163  0.08619238  0.28861754    -0.86500
C924        C  0.39034890  0.16879237  0.22672615     0.85700
C925        C  0.43517397  0.20662981  0.27605456     1.07300
H926        H  0.37928911  0.12098101  0.26803916     0.39100
O927        O  0.39396880  0.12700687  0.27681607    -1.09100
O928        O  0.43510565  0.12611565  0.27131775    -0.65800
Ni929      Ni  0.41371624  0.12864687  0.24553505     1.26300
O930        O  0.38704200  0.15875460  0.25218005    -0.66000
O931        O  0.39791269  0.09674336  0.23952950    -0.78300
C932        C  0.43479334  0.14344562  0.18863585     0.85100
O933        O  0.43265657  0.13166485  0.21197360    -0.65500
Ni934      Ni  0.39120934  0.11039398  0.31264994     1.27400
Ni935      Ni  0.40671304  0.15808465  0.28273409     1.26100
H936        H  0.44171057  0.16409708  0.26588724     0.39700
C937        C  0.31228740  0.13357766  0.44830431    -0.13800
C938        C  0.31465856  0.12090471  0.42532494     0.16600
C939        C  0.30142515  0.09767271  0.42608576     0.02900
C940        C  0.28625055  0.08745872  0.44974626    -0.12300
C941        C  0.28414240  0.09982763  0.47371696    -0.03300
C942        C  0.29718964  0.12333743  0.47245429     0.02200
C943        C  0.33305270  0.13154620  0.40321538     0.09000
N944        N  0.30454675  0.08405208  0.40445959     0.65400
H945        H  0.27686991  0.06946817  0.44995137     0.18300
N946        N  0.29613507  0.13718199  0.49569792     0.75800
H947        H  0.32272369  0.15150473  0.44799406     0.09800
C948        C  0.32938269  0.13412380  0.37222055     0.03500
C949        C  0.34652368  0.14010951  0.35103444    -0.05200
C950        C  0.36717137  0.14310005  0.36019385    -0.23600
C951        C  0.37128527  0.14214735  0.39158070     0.12700
C952        C  0.35423936  0.13648254  0.41280105    -0.12800
N953        N  0.30813883  0.12977823  0.36169473     0.64400
H954        H  0.34313776  0.14086464  0.32703719     0.12300
N955        N  0.39250221  0.14648523  0.40221622     0.61000
H956        H  0.35721688  0.13477196  0.43670123     0.08400
O957        O  0.28144504  0.14269632  0.49377863    -0.40400
O958        O  0.31339175  0.14919467  0.51114480    -0.39600
O959        O  0.31822401  0.07769270  0.41045216    -0.39600
O960        O  0.29007382  0.07402818  0.38408169    -0.37300
O961        O  0.40668091  0.16595911  0.41026429    -0.38200
O962        O  0.39499568  0.13047728  0.41038478    -0.34400
O963        O  0.30495239  0.14588740  0.35727199    -0.35800
O964        O  0.29512560  0.11126124  0.34954841    -0.40100
C965        C  0.43997090  0.11120177  0.12095872    -0.13800
C966        C  0.44964094  0.12792032  0.09871037     0.16600
C967        C  0.45461797  0.14962707  0.10645395     0.02900
C968        C  0.44978161  0.15417689  0.13576415    -0.12300
C969        C  0.44010906  0.13752296  0.15818281    -0.03300
C970        C  0.43532133  0.11577711  0.15047058     0.02200
C971        C  0.45382764  0.12234830  0.06737172     0.09000
N972        N  0.46517581  0.16745061  0.08507747     0.65400
H973        H  0.45387483  0.17103638  0.14104487     0.18300
N974        N  0.42451165  0.09780477  0.17153142     0.75800
H975        H  0.43550529  0.09431223  0.11519325     0.09800
C976        C  0.46703736  0.11252996  0.06251861     0.03500
C977        C  0.47110379  0.10803445  0.03278802    -0.05200
C978        C  0.46201323  0.11274829  0.00707305    -0.23600
C979        C  0.44785033  0.12162909  0.01206209     0.12700
C980        C  0.44410319  0.12648226  0.04196352    -0.12800
N981        N  0.47696158  0.10746655  0.08749232     0.64400
H982        H  0.48162562  0.10079037  0.02995328     0.12300
N983        N  0.43742188  0.12627822  0.98732796     0.61000
H984        H  0.43330981  0.13335637  0.04537051     0.08400
O985        O  0.43573758  0.09077003  0.18520902    -0.40400
O986        O  0.40369597  0.08564056  0.17022700    -0.39600
O987        O  0.45400333  0.17503410  0.07260893    -0.39600
O988        O  0.48609974  0.17876797  0.08441101    -0.37300
O989        O  0.41852331  0.11128337  0.97846352    -0.38200
O990        O  0.44361767  0.14626401  0.98115641    -0.34400
O991        O  0.46906824  0.08748549  0.09552139    -0.35800
O992        O  0.49622152  0.12175924  0.09611187    -0.40100
C993        C  0.26662905  0.96656057  0.57033229    -0.13800
C994        C  0.28352760  0.97268763  0.59206027     0.16600
C995        C  0.28908853  0.99122410  0.61114656     0.02900
C996        C  0.27842177  0.00365626  0.60719013    -0.12300
C997        C  0.26291363  0.99858443  0.58372401    -0.03300
C998        C  0.25647941  0.97937055  0.56580681     0.02200
C999        C  0.29645743  0.96088653  0.59196659     0.09000
N1000       N  0.30715527  0.99923847  0.63224820     0.65400
H1001       H  0.28373337  0.01850798  0.62081878     0.18300
N1002       N  0.23999969  0.97285806  0.54245396     0.75800
H1003       H  0.26195944  0.95224302  0.55581075     0.09800
C1004       C  0.29771893  0.94946026  0.61771861     0.03500
C1005       C  0.31125213  0.93991098  0.61687765    -0.05200
C1006       C  0.32377097  0.94122092  0.59073146    -0.23600
C1007       C  0.32105225  0.95107824  0.56414607     0.12700
C1008       C  0.30765631  0.96094475  0.56509012    -0.12800
N1009       N  0.28490678  0.94671709  0.64462290     0.64400
H1010       H  0.31219158  0.93161805  0.63731124     0.12300
N1011       N  0.33208442  0.95177941  0.53629892     0.61000
H1012       H  0.30634802  0.96913731  0.54479353     0.08400
O1013       O  0.22052166  0.95731821  0.54777300    -0.40400
O1014       O  0.24606001  0.97828577  0.51510797    -0.39600
O1015       O  0.32667397  0.01118208  0.62233501    -0.39600
O1016       O  0.30340706  0.00002452  0.66032420    -0.37300
O1017       O  0.32177725  0.93695352  0.51641158    -0.38200
O1018       O  0.34916540  0.96963134  0.52853470    -0.34400
O1019       O  0.26543191  0.93033391  0.64615160    -0.35800
O1020       O  0.29480828  0.95605286  0.66908555    -0.40100
C1021       C  0.47474609  0.01346121  0.77787780    -0.13800
C1022       C  0.46816808  0.01794170  0.74983723     0.16600
C1023       C  0.46647460  0.03719943  0.74703034     0.02900
C1024       C  0.46868191  0.04995857  0.77298185    -0.12300
C1025       C  0.47240357  0.04382780  0.80207327    -0.03300
C1026       C  0.47681908  0.02609308  0.80393881     0.02200
C1027       C  0.45670978  0.99933368  0.72795651     0.09000
N1028       N  0.46027929  0.04279642  0.71874557     0.65400
H1029       H  0.46595230  0.06391476  0.77056097     0.18300
N1030       N  0.48043451  0.01857616  0.83242972     0.75800
H1031       H  0.47599401  0.99860958  0.78030565     0.09800
C1032       C  0.46492147  0.99902490  0.69866086     0.03500
C1033       C  0.45182003  0.98166784  0.67834289    -0.05200
C1034       C  0.43060309  0.96439623  0.68687947    -0.23600
C1035       C  0.42323013  0.96410095  0.71716674     0.12700
C1036       C  0.43619503  0.98153542  0.73707935    -0.12800
N1037       N  0.48654649  0.01590959  0.68937139     0.64400
H1038       H  0.45805667  0.98210075  0.65549737     0.12300
N1039       N  0.40260000  0.94636772  0.72826426     0.61000
H1040       H  0.42992828  0.98140152  0.75984033     0.08400
O1041       O  0.49999720  0.02357803  0.83930658    -0.40400
O1042       O  0.46447569  0.00136412  0.84398727    -0.39600
O1043       O  0.44017510  0.03692565  0.71414641    -0.39600
O1044       O  0.47507189  0.05814920  0.70270269    -0.37300
O1045       O  0.40257908  0.93090702  0.74335553    -0.38200
O1046       O  0.38602489  0.94911358  0.73000101    -0.34400
O1047       O  0.50285025  0.01307259  0.69403612    -0.35800
O1048       O  0.48842911  0.03026521  0.67016362    -0.40100
C1049       C  0.34870434  0.87923916  0.43387608    -0.13800
C1050       C  0.33261472  0.88524762  0.42813724     0.16600
C1051       C  0.32562591  0.89372957  0.45243509     0.02900
C1052       C  0.33475775  0.89598874  0.48170229    -0.12300
C1053       C  0.35101235  0.89012595  0.48738363    -0.03300
C1054       C  0.35795426  0.88162517  0.46296006     0.02200
C1055       C  0.32154355  0.87983964  0.39775075     0.09000
N1056       N  0.30960527  0.90055104  0.44768437     0.65400
H1057       H  0.32940091  0.90279410  0.49992062     0.18300
N1058       N  0.37356405  0.87423689  0.46751469     0.75800
H1059       H  0.35356851  0.87181508  0.41588831     0.09800
C1060       C  0.33367524  0.88701855  0.37016649     0.03500
C1061       C  0.32278930  0.87922023  0.34209984    -0.05200
C1062       C  0.29980430  0.86420076  0.34063591    -0.23600
C1063       C  0.28766492  0.85733851  0.36838180     0.12700
C1064       C  0.29861619  0.86506776  0.39638427    -0.12800
N1065       N  0.35703425  0.90237972  0.37014922     0.64400
H1066       H  0.33253485  0.88491451  0.32131158     0.12300
N1067       N  0.26418543  0.84264774  0.36880358     0.61000
H1068       H  0.28914132  0.85892199  0.41731915     0.08400
O1069       O  0.39328189  0.88614484  0.45829678    -0.40400
O1070       O  0.36655060  0.85412835  0.47401143    -0.39600
O1071       O  0.29015072  0.88863736  0.45783620    -0.39600
O1072       O  0.31619142  0.92048610  0.44063668    -0.37300
O1073       O  0.25664003  0.82231317  0.37437909    -0.38200
O1074       O  0.25149443  0.85065246  0.37114111    -0.34400
O1075       O  0.37027354  0.89541125  0.36442000    -0.35800
O1076       O  0.36379518  0.92286964  0.36776459    -0.40100
C1077       C  0.35750346  0.97716792  0.22440817    -0.13800
C1078       C  0.35446856  0.98710701  0.25038650     0.16600
C1079       C  0.33940299  0.97339996  0.27315908     0.02900
C1080       C  0.32693439  0.95028435  0.26880903    -0.12300
C1081       C  0.32885671  0.94046435  0.24180514    -0.03300
C1082       C  0.34501821  0.95415098  0.21994411     0.02200
C1083       C  0.36536278  0.01175214  0.25138182     0.09000
N1084       N  0.33511780  0.98272713  0.29960850     0.65400
H1085       H  0.31459429  0.94019038  0.28573220     0.18300
N1086       N  0.34887188  0.94504021  0.19285738     0.75800
H1087       H  0.36920186  0.98746609  0.20694449     0.09800
C1088       C  0.38235785  0.02470107  0.27233423     0.03500
C1089       C  0.39111996  0.04773364  0.27335763    -0.05200
C1090       C  0.38339720  0.05840505  0.25374804    -0.23600
C1091       C  0.36715257  0.04558527  0.23168163     0.12700
C1092       C  0.35845183  0.02247671  0.23059379    -0.12800
N1093       N  0.39110762  0.01484900  0.29252207     0.64400
H1094       H  0.40377235  0.05736199  0.29021319     0.12300
N1095       N  0.35779509  0.05523278  0.21217606     0.61000
H1096       H  0.34546466  0.01267376  0.21424838     0.08400
O1097       O  0.36429264  0.94048293  0.19271263    -0.40400
O1098       O  0.34103372  0.94688785  0.16773830    -0.39600
O1099       O  0.31986669  0.98750513  0.29855116    -0.39600
O1100       O  0.34175711  0.98021139  0.32532412    -0.37300
O1101       O  0.35976115  0.05442245  0.18359531    -0.38200
O1102       O  0.34276403  0.05851489  0.22260087    -0.34400
O1103       O  0.40727345  0.01281663  0.28371342    -0.35800
O1104       O  0.38711467  0.01413782  0.32076525    -0.40100
C1105       C  0.21356543  0.00604941  0.79149641    -0.13800
C1106       C  0.19668053  0.99892861  0.76950344     0.16600
C1107       C  0.17504347  0.98224993  0.77717739     0.02900
C1108       C  0.17058984  0.97282303  0.80636833    -0.12300
C1109       C  0.18738832  0.97969399  0.82855424    -0.03300
C1110       C  0.20916130  0.99654941  0.82084477     0.02200
C1111       C  0.20190641  0.00860834  0.73837731     0.09000
N1112       N  0.15731059  0.97491120  0.75564418     0.65400
H1113       H  0.15375165  0.96003222  0.81172159     0.18300
N1114       N  0.22722735  0.00320093  0.84165978     0.75800
H1115       H  0.23034686  0.01870129  0.78560792     0.09800
C1116       C  0.20495248  0.02981478  0.73266121     0.03500
C1117       C  0.20947020  0.03843049  0.70300129    -0.05200
C1118       C  0.21136268  0.02641974  0.67834531    -0.23600
C1119       C  0.20885891  0.00523840  0.68439771     0.12700
C1120       C  0.20391037  0.99649490  0.71416987    -0.12800
N1121       N  0.20318484  0.04273092  0.75672971     0.64400
H1122       H  0.21143288  0.05472725  0.69941050     0.12300
N1123       N  0.21167582  0.99250839  0.66098963     0.61000
H1124       H  0.20187833  0.98023764  0.71850935     0.08400
O1125       O  0.23468671  0.02137146  0.85582705    -0.40400
O1126       O  0.23881118  0.99391229  0.84022819    -0.39600
O1127       O  0.15053234  0.95664667  0.74197460    -0.39600
O1128       O  0.14557377  0.98405486  0.75529598    -0.37300
O1129       O  0.23057778  0.99454783  0.65700054    -0.38200
O1130       O  0.19479165  0.97572354  0.65019881    -0.34400
O1131       O  0.22063379  0.05845619  0.76821855    -0.35800
O1132       O  0.18482016  0.04174264  0.76145281    -0.40100
C1133       C  0.34791244  0.03480528  0.93872624    -0.13800
C1134       C  0.33610551  0.03847597  0.91553106     0.16600
C1135       C  0.34810776  0.05265749  0.89111821     0.02900
C1136       C  0.37108988  0.06133620  0.88908586    -0.12300
C1137       C  0.38283742  0.05686396  0.91146351    -0.03300
C1138       C  0.37109803  0.04407679  0.93712936     0.02200
C1139       C  0.31143201  0.02753994  0.91781130     0.09000
N1140       N  0.33751720  0.05937108  0.86902496     0.65400
H1141       H  0.37989056  0.07174954  0.86969159     0.18300
N1142       N  0.38218553  0.03957482  0.96112055     0.75800
H1143       H  0.33899495  0.02435625  0.95802430     0.09800
C1144       C  0.29706631  0.01150387  0.89638947     0.03500
C1145       C  0.27401611  0.99998871  0.90138588    -0.05200
C1146       C  0.26482725  0.00355816  0.92788202    -0.23600
C1147       C  0.27915476  0.02015395  0.94870173     0.12700
C1148       C  0.30213040  0.03197282  0.94342164    -0.12800
N1149       N  0.30559287  0.00504081  0.87110131     0.64400
H1150       H  0.26341455  0.98699396  0.88551238     0.12300
N1151       N  0.27070511  0.02514810  0.97548672     0.61000
H1152       H  0.31288524  0.04431963  0.95994138     0.08400
O1153       O  0.38115388  0.02094895  0.96200828    -0.40400
O1154       O  0.38798440  0.05159175  0.98477551    -0.39600
O1155       O  0.33510704  0.07579034  0.87503509    -0.39600
O1156       O  0.33676672  0.05358291  0.84150206    -0.37300
O1157       O  0.26687236  0.04105815  0.97488727    -0.38200
O1158       O  0.27209354  0.01739576  0.00092609    -0.34400
O1159       O  0.31097491  0.99039423  0.87516224    -0.35800
O1160       O  0.30168112  0.00884165  0.84429681    -0.40100
C1161       C  0.18288542  0.86761318  0.04693535    -0.13800
C1162       C  0.18995453  0.87780738  0.07559774     0.16600
C1163       C  0.19041562  0.89796645  0.08128996     0.02900
C1164       C  0.18509729  0.90814040  0.05791257    -0.12300
C1165       C  0.17981579  0.89899446  0.02835552    -0.03300
C1166       C  0.17773482  0.87791812  0.02333702     0.02200
C1167       C  0.20063104  0.86950373  0.09690232     0.09000
N1168       N  0.19855597  0.90962213  0.10952302     0.65400
H1169       H  0.18657681  0.92413744  0.06256269     0.18300
N1170       N  0.17219737  0.86750927  0.99399235     0.75800
H1171       H  0.18261870  0.85216354  0.04231669     0.09800
C1172       C  0.19185500  0.86087970  0.12595549     0.03500
C1173       C  0.20417679  0.85585744  0.14643347    -0.05200
C1174       C  0.22523278  0.85922524  0.13844538    -0.23600
C1175       C  0.23325165  0.86647978  0.10845817     0.12700
C1176       C  0.22097435  0.87162369  0.08819072    -0.12800
N1177       N  0.17041313  0.85687701  0.13491100     0.64400
H1178       H  0.19746803  0.84995976  0.16906010     0.12300
N1179       N  0.25386987  0.86894059  0.09815170     0.61000
H1180       H  0.22769553  0.87793665  0.06567863     0.08400
O1181       O  0.15242986  0.85255816  0.98877482    -0.40400
O1182       O  0.18751579  0.86885400  0.97707842    -0.39600
O1183       O  0.21905250  0.92329395  0.11213548    -0.39600
O1184       O  0.18515807  0.91116613  0.12741386    -0.37300
O1185       O  0.25386467  0.85315371  0.08389341    -0.38200
O1186       O  0.27080245  0.88808490  0.09686431    -0.34400
O1187       O  0.15364435  0.83824806  0.12901079    -0.35800
O1188       O  0.16892830  0.86896268  0.15522350    -0.40100
C1189       C  0.45552617  0.86466881  0.62762706    -0.13800
C1190       C  0.47088712  0.87993800  0.64861415     0.16600
C1191       C  0.47071396  0.89975374  0.65454558     0.02900
C1192       C  0.45525958  0.90380601  0.63996150    -0.12300
C1193       C  0.43997051  0.88881968  0.61853084    -0.03300
C1194       C  0.44020364  0.86892203  0.61249259     0.02200
C1195       C  0.48856064  0.87624096  0.66137455     0.09000
N1196       N  0.48727929  0.91687883  0.67330601     0.65400
H1197       H  0.45594841  0.91942423  0.64478794     0.18300
N1198       N  0.42531301  0.85296388  0.59094996     0.75800
H1199       H  0.45574654  0.84953158  0.62248811     0.09800
C1200       C  0.49133055  0.87476850  0.69306964     0.03500
C1201       C  0.51008394  0.87441893  0.70396467    -0.05200
C1202       C  0.52614749  0.87497739  0.68386232    -0.23600
C1203       C  0.52231415  0.87466873  0.65193983     0.12700
C1204       C  0.50382369  0.87555796  0.64116814    -0.12800
N1205       N  0.47491466  0.87277190  0.71449346     0.64400
H1206       H  0.51212256  0.87395724  0.72845885     0.12300
N1207       N  0.53693366  0.87353234  0.62997503     0.61000
H1208       H  0.50164668  0.87623718  0.61672976     0.08400
O1209       O  0.40811787  0.83590141  0.60049360    -0.40400
O1210       O  0.43188854  0.85321436  0.56398015    -0.39600
O1211       O  0.50587884  0.93020029  0.66164334    -0.39600
O1212       O  0.48140694  0.92245272  0.69748226    -0.37300
O1213       O  0.53274763  0.85480199  0.61995576    -0.38200
O1214       O  0.55034165  0.89082287  0.61553906    -0.34400
O1215       O  0.45861227  0.85372201  0.71986648    -0.35800
O1216       O  0.47988619  0.88806022  0.73378409    -0.40100
C1217       C  0.65305156  0.86192590  0.62379406    -0.13800
C1218       C  0.65146564  0.87017597  0.59534403     0.16600
C1219       C  0.63290867  0.87244137  0.58874221     0.02900
C1220       C  0.61722555  0.86816772  0.61144164    -0.12300
C1221       C  0.61980881  0.86195742  0.64102792    -0.03300
C1222       C  0.63743486  0.85778822  0.64674069     0.02200
C1223       C  0.67037808  0.87884356  0.57408639     0.09000
N1224       N  0.63077366  0.88097937  0.56002446     0.65400
H1225       H  0.60360788  0.87099174  0.60624548     0.18300
N1226       N  0.64090379  0.85112964  0.67614771     0.75800
H1227       H  0.66720282  0.85991429  0.62878155     0.09800
C1228       C  0.69070482  0.89778308  0.58182234     0.03500
C1229       C  0.70689707  0.90836237  0.55943679    -0.05200
C1230       C  0.70314223  0.90049273  0.52923345    -0.23600
C1231       C  0.68371864  0.88021233  0.52232138     0.12700
C1232       C  0.66743849  0.86963527  0.54480055    -0.12800
N1233       N  0.69433285  0.90768546  0.61147332     0.64400
H1234       H  0.72189410  0.92367708  0.56530427     0.12300
N1235       N  0.67934932  0.87114692  0.49212587     0.61000
H1236       H  0.65195543  0.85483261  0.53894214     0.08400
O1237       O  0.65234906  0.86588305  0.69560440    -0.40400
O1238       O  0.63842824  0.83198736  0.67920905    -0.39600
O1239       O  0.61742848  0.86779555  0.54032025    -0.39600
O1240       O  0.63813593  0.90156045  0.55721622    -0.37300
O1241       O  0.68265394  0.85530373  0.48600463    -0.38200
O1242       O  0.66770805  0.87533833  0.47423037    -0.34400
O1243       O  0.70691246  0.90541548  0.63006135    -0.35800
O1244       O  0.68910446  0.92236001  0.61643326    -0.40100
C1245       C  0.62049655  0.13466956  0.80635156    -0.13800
C1246       C  0.61741881  0.13260300  0.83810009     0.16600
C1247       C  0.63401161  0.13262922  0.85649783     0.02900
C1248       C  0.65296960  0.13410157  0.84298016    -0.12300
C1249       C  0.65578813  0.13516059  0.81100148    -0.03300
C1250       C  0.63939005  0.13598493  0.79266389     0.02200
C1251       C  0.59539086  0.12676774  0.85092559     0.09000
N1252       N  0.63109307  0.12940224  0.88877741     0.65400
H1253       H  0.66505307  0.13334089  0.85776605     0.18300
N1254       N  0.64101293  0.13717008  0.76008514     0.75800
H1255       H  0.60766420  0.13434524  0.79195195     0.09800
C1256       C  0.59155584  0.14189625  0.86753017     0.03500
C1257       C  0.57041317  0.13500080  0.87988259    -0.05200
C1258       C  0.55263877  0.11324438  0.87539146    -0.23600
C1259       C  0.55659925  0.09837449  0.85790807     0.12700
C1260       C  0.57778714  0.10520581  0.84622153    -0.12800
N1261       N  0.60862409  0.16452953  0.87091117     0.64400
H1262       H  0.56782744  0.14689478  0.89260018     0.12300
N1263       N  0.53965392  0.07594640  0.85261419     0.61000
H1264       H  0.58055550  0.09345403  0.83339403     0.08400
O1265       O  0.64821370  0.15571407  0.74708736    -0.40400
O1266       O  0.63057394  0.11959087  0.74456894    -0.39600
O1267       O  0.62310175  0.11004214  0.89946889    -0.39600
O1268       O  0.64140898  0.14585078  0.90635749    -0.37300
O1269       O  0.54095725  0.06065901  0.86618740    -0.38200
O1270       O  0.52821609  0.07138581  0.82852009    -0.34400
O1271       O  0.60974350  0.17869464  0.85192022    -0.35800
O1272       O  0.61855737  0.17105862  0.89617810    -0.40100
C1273       C  0.60615879  0.98274618  0.72562797    -0.13800
C1274       C  0.62196157  0.99343084  0.74862937     0.16600
C1275       C  0.62515207  0.98052875  0.77073046     0.02900
C1276       C  0.61373694  0.95724980  0.76812633    -0.12300
C1277       C  0.59903370  0.94658898  0.74377594    -0.03300
C1278       C  0.59459442  0.95955550  0.72316087     0.02200
C1279       C  0.63490191  0.01804012  0.74890683     0.09000
N1280       N  0.64021419  0.99083788  0.79556930     0.65400
H1281       H  0.61728184  0.94760455  0.78422857     0.18300
N1282       N  0.57826913  0.94938790  0.69964873     0.75800
H1283       H  0.60304669  0.99250477  0.70916262     0.09800
C1284       C  0.65550377  0.02980717  0.73370450     0.03500
C1285       C  0.66731865  0.05310317  0.73424469    -0.05200
C1286       C  0.65890494  0.06494159  0.74977625    -0.23600
C1287       C  0.63776111  0.05319573  0.76354273     0.12700
C1288       C  0.62592563  0.02989852  0.76298568    -0.12800
N1289       N  0.66486539  0.01832798  0.71820356     0.64400
H1290       H  0.68368122  0.06192367  0.72395381     0.12300
N1291       N  0.62807687  0.06477415  0.77795510     0.61000
H1292       H  0.60976394  0.02101834  0.77381790     0.08400
O1293       O  0.58441164  0.94953999  0.67245805    -0.40400
O1294       O  0.55868214  0.94519049  0.70471531    -0.39600
O1295       O  0.63276863  0.99236572  0.82121625    -0.39600
O1296       O  0.65962152  0.99381931  0.79381965    -0.37300
O1297       O  0.61567383  0.06951516  0.76258270    -0.38200
O1298       O  0.62823297  0.06620847  0.80671763    -0.34400
O1299       O  0.66343454  0.01658734  0.68947161    -0.35800
O1300       O  0.67864076  0.01468414  0.73199846    -0.40100
C1301       C  0.76889681  0.00001235  0.28612097    -0.13800
C1302       C  0.78533216  0.99919174  0.26841870     0.16600
C1303       C  0.79804301  0.99077798  0.28195168     0.02900
C1304       C  0.79350791  0.98249186  0.31186506    -0.12300
C1305       C  0.77683589  0.98287685  0.32946033    -0.03300
C1306       C  0.76475026  0.99221821  0.31648508     0.02200
C1307       C  0.79021112  0.00861471  0.23681379     0.09000
N1308       N  0.81545998  0.99017204  0.26546440     0.65400
H1309       H  0.80309895  0.97555929  0.32139897     0.18300
N1310       N  0.74729005  0.99266165  0.33299175     0.75800
H1311       H  0.75932358  0.00689641  0.27640245     0.09800
C1312       C  0.77425239  0.00040089  0.21309234     0.03500
C1313       C  0.77982440  0.01002166  0.18379736    -0.05200
C1314       C  0.80112076  0.02797719  0.17745277    -0.23600
C1315       C  0.81703119  0.03609211  0.20136463     0.12700
C1316       C  0.81139881  0.02650914  0.23049491    -0.12800
N1317       N  0.75243498  0.98206292  0.21812326     0.64400
H1318       H  0.76727939  0.00353914  0.16603892     0.12300
N1319       N  0.83925799  0.05372813  0.19646317     0.61000
H1320       H  0.82375453  0.03327130  0.24847462     0.08400
O1321       O  0.72753659  0.97761485  0.32803634    -0.40400
O1322       O  0.75092792  0.01048062  0.34569550    -0.39600
O1323       O  0.83536257  0.00458382  0.27111434    -0.39600
O1324       O  0.81137596  0.97263940  0.25151442    -0.37300
O1325       O  0.84450535  0.07325310  0.20414210    -0.38200
O1326       O  0.85438410  0.04908845  0.19184289    -0.34400
O1327       O  0.73638380  0.98557889  0.22063348    -0.35800
O1328       O  0.74854250  0.96266410  0.21229450    -0.40100
C1329       C  0.80114766  0.13573779  0.95048899    -0.13800
C1330       C  0.78931589  0.12361104  0.92487199     0.16600
C1331       C  0.78321453  0.10107506  0.92267987     0.02900
C1332       C  0.78833101  0.09096194  0.94642724    -0.12300
C1333       C  0.79904153  0.10260389  0.97334018    -0.03300
C1334       C  0.80594415  0.12557537  0.97473096     0.02200
C1335       C  0.78255263  0.13422094  0.90108839     0.09000
N1336       N  0.77030347  0.08774478  0.89750699     0.65400
H1337       H  0.78277540  0.07342921  0.94419071     0.18300
N1338       N  0.81695623  0.13892159  0.00073138     0.75800
H1339       H  0.80633914  0.15323167  0.95198402     0.09800
C1340       C  0.76807244  0.14232370  0.90790592     0.03500
C1341       C  0.75814696  0.14766221  0.88413487    -0.05200
C1342       C  0.76294821  0.14577447  0.85351931    -0.23600
C1343       C  0.77949917  0.14028755  0.84689505     0.12700
C1344       C  0.78894501  0.13432555  0.87067461    -0.12800
N1345       N  0.76214237  0.14386364  0.93870257     0.64400
H1346       H  0.74586202  0.15237044  0.88961809     0.12300
N1347       N  0.78526142  0.13841498  0.81615493     0.61000
H1348       H  0.80055636  0.12873098  0.86524261     0.08400
O1349       O  0.80909346  0.15008774  0.01253209    -0.40400
O1350       O  0.83728748  0.14541573  0.00442448    -0.39600
O1351       O  0.77908677  0.08113310  0.87800797    -0.39600
O1352       O  0.74945776  0.07911155  0.89812246    -0.37300
O1353       O  0.80178978  0.15481004  0.80399034    -0.38200
O1354       O  0.77806714  0.11931850  0.80485549    -0.34400
O1355       O  0.77129554  0.16256447  0.95176723    -0.35800
O1356       O  0.74464029  0.12806834  0.94993080    -0.40100
C1357       C  0.64760057  0.14368591  0.55454846    -0.13800
C1358       C  0.66015718  0.13417946  0.56414518     0.16600
C1359       C  0.66307861  0.11984472  0.54439086     0.02900
C1360       C  0.65308695  0.11491940  0.51554643    -0.12300
C1361       C  0.63980373  0.12376485  0.50631850    -0.03300
C1362       C  0.63730983  0.13851572  0.52593421     0.02200
C1363       C  0.66900864  0.13853742  0.59550119     0.09000
N1364       N  0.67591687  0.10998755  0.55344308     0.65400
H1365       H  0.65509514  0.10353024  0.50074682     0.18300
N1366       N  0.62468363  0.14864038  0.51697890     0.75800
H1367       H  0.64537635  0.15479131  0.56965426     0.09800
C1368       C  0.68656468  0.15950941  0.60395431     0.03500
C1369       C  0.69421014  0.16328929  0.63402875    -0.05200
C1370       C  0.68451582  0.14651569  0.65631874    -0.23600
C1371       C  0.66615429  0.12573528  0.64802112     0.12700
C1372       C  0.65874597  0.12189574  0.61765682    -0.12800
N1373       N  0.69711965  0.17701097  0.58210180     0.64400
H1374       H  0.70805019  0.17949911  0.63982538     0.12300
N1375       N  0.65501159  0.10827608  0.66978375     0.61000
H1376       H  0.64478468  0.10588880  0.61135676     0.08400
O1377       O  0.60498651  0.14059935  0.52639245    -0.40400
O1378       O  0.63459454  0.16799444  0.50593672    -0.39600
O1379       O  0.66612620  0.09008822  0.56247058    -0.39600
O1380       O  0.69611113  0.11917946  0.54589402    -0.37300
O1381       O  0.63734146  0.10543598  0.68200400    -0.38200
O1382       O  0.65953239  0.09284428  0.67091062    -0.34400
O1383       O  0.69239592  0.19231644  0.58166415    -0.35800
O1384       O  0.71439324  0.17986224  0.56862002    -0.40100
C1385       C  0.49549482  0.13333258  0.31081076    -0.13800
C1386       C  0.49240686  0.12079333  0.33736039     0.16600
C1387       C  0.47152994  0.11046383  0.35183913     0.02900
C1388       C  0.45417267  0.11257350  0.33953416    -0.12300
C1389       C  0.45697810  0.12482096  0.31269088    -0.03300
C1390       C  0.47804476  0.13547538  0.29840601     0.02200
C1391       C  0.51125450  0.11923919  0.35033914     0.09000
N1392       N  0.46740241  0.09704645  0.37845555     0.65400
H1393       H  0.43813807  0.10397369  0.35075898     0.18300
N1394       N  0.48238672  0.14940723  0.27233968     0.75800
H1395       H  0.51166429  0.14182761  0.29995100     0.09800
C1396       C  0.52139260  0.10925326  0.33398592     0.03500
C1397       C  0.53860169  0.10738242  0.34736425    -0.05200
C1398       C  0.54630304  0.11548144  0.37700008    -0.23600
C1399       C  0.53674882  0.12642402  0.39283429     0.12700
C1400       C  0.51926919  0.12800253  0.37949601    -0.12800
N1401       N  0.51394301  0.10023220  0.30413214     0.64400
H1402       H  0.54571536  0.09914174  0.33446505     0.12300
N1403       N  0.54427973  0.13579144  0.42251605     0.61000
H1404       H  0.51191724  0.13618943  0.39198094     0.08400
O1405       O  0.48364523  0.14231716  0.24627869    -0.40400
O1406       O  0.49044704  0.17001377  0.27627968    -0.39600
O1407       O  0.46640645  0.10465780  0.40424226    -0.39600
O1408       O  0.45957327  0.07640516  0.37537240    -0.37300
O1409       O  0.55911199  0.15595925  0.42481987    -0.38200
O1410       O  0.53282532  0.12577165  0.44568275    -0.34400
O1411       O  0.52514356  0.11098713  0.28117307    -0.35800
O1412       O  0.50002107  0.07981271  0.30131215    -0.40100
C1413       C  0.47164684  0.97456054  0.49068251    -0.13800
C1414       C  0.48679208  0.99329599  0.50744120     0.16600
C1415       C  0.48263680  0.99433751  0.53889719     0.02900
C1416       C  0.46389762  0.97680744  0.55283574    -0.12300
C1417       C  0.44902257  0.95781023  0.53625636    -0.03300
C1418       C  0.45303779  0.95689124  0.50467079     0.02200
C1419       C  0.50563456  0.01227826  0.49119732     0.09000
N1420       N  0.49762721  0.01276781  0.55735471     0.65400
H1421       H  0.46134943  0.97786147  0.57709026     0.18300
N1422       N  0.43800295  0.93857247  0.48607773     0.75800
H1423       H  0.47393398  0.97382776  0.46630331     0.09800
C1424       C  0.52035842  0.00944710  0.47186084     0.03500
C1425       C  0.53707008  0.02765969  0.45585021    -0.05200
C1426       C  0.53970065  0.04895979  0.45877333    -0.23600
C1427       C  0.52476305  0.05167825  0.47780996     0.12700
C1428       C  0.50796535  0.03345502  0.49350237    -0.12800
N1429       N  0.51896526  0.98833391  0.46870816     0.64400
H1430       H  0.54833335  0.02515815  0.44148566     0.12300
N1431       N  0.52560820  0.07257160  0.48033100     0.61000
H1432       H  0.49624164  0.03581746  0.50697390     0.08400
O1433       O  0.44295552  0.92406332  0.47856819    -0.40400
O1434       O  0.42301006  0.93979363  0.47149301    -0.39600
O1435       O  0.49197876  0.02648660  0.56631153    -0.39600
O1436       O  0.51334472  0.01211385  0.57073622    -0.37300
O1437       O  0.51396517  0.07683122  0.46253701    -0.38200
O1438       O  0.53349998  0.08406307  0.50423246    -0.34400
O1439       O  0.51151221  0.97753765  0.44417683    -0.35800
O1440       O  0.53009922  0.98338521  0.48647844    -0.40100
C1441       C  0.69505796  0.01461504  0.40240460    -0.13800
C1442       C  0.70197116  0.03240414  0.42295696     0.16600
C1443       C  0.71801668  0.03591380  0.44514777     0.02900
C1444       C  0.72651727  0.02148456  0.44689192    -0.12300
C1445       C  0.71903480  0.00313101  0.42717402    -0.03300
C1446       C  0.70314366  0.99976662  0.40458547     0.02200
C1447       C  0.69071777  0.04574467  0.42238257     0.09000
N1448       N  0.72552600  0.05378641  0.46650277     0.65400
H1449       H  0.73866860  0.02431440  0.46442657     0.18300
N1450       N  0.69328715  0.98026829  0.38592189     0.75800
H1451       H  0.68229985  0.01147826  0.38571629     0.09800
C1452       C  0.69367945  0.05990612  0.39772418     0.03500
C1453       C  0.68012485  0.06934921  0.39500347    -0.05200
C1454       C  0.66326363  0.06482699  0.41638653    -0.23600
C1455       C  0.66104550  0.05153010  0.44202852     0.12700
C1456       C  0.67482217  0.04219162  0.44484517    -0.12800
N1457       N  0.70993299  0.06428239  0.37469585     0.64400
H1458       H  0.68226732  0.07967040  0.37529131     0.12300
N1459       N  0.64358502  0.04553795  0.46370316     0.61000
H1460       H  0.67221064  0.03105464  0.46371386     0.08400
O1461       O  0.69480756  0.98235184  0.35724479    -0.40400
O1462       O  0.67827576  0.96226571  0.39720390    -0.39600
O1463       O  0.71811066  0.04980801  0.49347985    -0.39600
O1464       O  0.74291824  0.07192985  0.46070211    -0.37300
O1465       O  0.62530465  0.02784866  0.45979631    -0.38200
O1466       O  0.64803167  0.05486178  0.48954793    -0.34400
O1467       O  0.70389426  0.05449582  0.34923751    -0.35800
O1468       O  0.72911372  0.08099645  0.37737422    -0.40100
C1469       C  0.51316566  0.87422551  0.94214977    -0.13800
C1470       C  0.53550244  0.88406685  0.93347378     0.16600
C1471       C  0.55212161  0.89717891  0.95494366     0.02900
C1472       C  0.54615664  0.89989255  0.98466062    -0.12300
C1473       C  0.52377191  0.89030872  0.99323917    -0.03300
C1474       C  0.50717142  0.87733993  0.97156038     0.02200
C1475       C  0.54083094  0.87994545  0.90206706     0.09000
N1476       N  0.57500740  0.90905233  0.94638782     0.65400
H1477       H  0.55908443  0.91037132  0.00068159     0.18300
N1478       N  0.48412597  0.86671291  0.97923654     0.75800
H1479       H  0.50025894  0.86398659  0.92594066     0.09800
C1480       C  0.54887628  0.86527353  0.89690075     0.03500
C1481       C  0.55195099  0.86018127  0.86701754    -0.05200
C1482       C  0.54687011  0.86911103  0.84140081    -0.23600
C1483       C  0.53874196  0.88387054  0.84664295     0.12700
C1484       C  0.53581626  0.88910363  0.87679131    -0.12800
N1485       N  0.55273995  0.85427273  0.92168563     0.64400
H1486       H  0.55812017  0.84875761  0.86404334     0.12300
N1487       N  0.53248339  0.89297447  0.82190573     0.61000
H1488       H  0.52915664  0.90005585  0.88051325     0.08400
O1489       O  0.47445131  0.84691364  0.98866879    -0.40400
O1490       O  0.47264525  0.87494000  0.96987319    -0.39600
O1491       O  0.58290418  0.92821880  0.93505517    -0.39600
O1492       O  0.58809228  0.90324309  0.95733424    -0.37300
O1493       O  0.51243420  0.88340556  0.81354786    -0.38200
O1494       O  0.54539601  0.91278927  0.81381511    -0.34400
O1495       O  0.53745656  0.83524043  0.92956523    -0.35800
O1496       O  0.57244635  0.86051586  0.92956847    -0.40100
C1497       C  0.39436794  0.86609548  0.12955047    -0.13800
C1498       C  0.39380090  0.88129076  0.15010877     0.16600
C1499       C  0.41378553  0.90026052  0.15868693     0.02900
C1500       C  0.43378506  0.90413670  0.14593860    -0.12300
C1501       C  0.43454113  0.88935534  0.12459365    -0.03300
C1502       C  0.41449200  0.86981709  0.11694425     0.02200
C1503       C  0.37225199  0.87719192  0.16233766     0.09000
N1504       N  0.41400845  0.91627658  0.17939827     0.65400
H1505       H  0.44878327  0.91924098  0.15241856     0.18300
N1506       N  0.41421773  0.85324998  0.09731513     0.75800
H1507       H  0.37908425  0.85115711  0.12343180     0.09800
C1508       C  0.35598755  0.87679693  0.14289598     0.03500
C1509       C  0.33605317  0.87360072  0.15509449    -0.05200
C1510       C  0.33191955  0.87116830  0.18679165    -0.23600
C1511       C  0.34810975  0.87089537  0.20618548     0.12700
C1512       C  0.36799744  0.87384813  0.19376761    -0.12800
N1513       N  0.36005821  0.88110432  0.11091722     0.64400
H1514       H  0.32418481  0.87406363  0.13953750     0.12300
N1515       N  0.34500028  0.86814669  0.23851183     0.61000
H1516       H  0.38033842  0.87380654  0.20882882     0.08400
O1517       O  0.40779596  0.85188406  0.07002284    -0.40400
O1518       O  0.41494370  0.83704576  0.10899874    -0.39600
O1519       O  0.42032621  0.91683421  0.20658253    -0.39600
O1520       O  0.41338133  0.93283033  0.16885875    -0.37300
O1521       O  0.33727765  0.84901491  0.24988770    -0.38200
O1522       O  0.35462007  0.88494179  0.25569597    -0.34400
O1523       O  0.35065057  0.86526898  0.09214770    -0.35800
O1524       O  0.36875743  0.90083461  0.10138408    -0.40100
C1525       C  0.52244690  0.97390757  0.25016115    -0.13800
C1526       C  0.52327164  0.99366926  0.24118650     0.16600
C1527       C  0.51924815  0.99627229  0.21020561     0.02900
C1528       C  0.51595131  0.97990249  0.18881243    -0.12300
C1529       C  0.51709670  0.96106988  0.19743063    -0.03300
C1530       C  0.51943363  0.95768753  0.22872128     0.02200
C1531       C  0.53326667  0.01270906  0.26282885     0.09000
N1532       N  0.51981333  0.01599469  0.19965223     0.65400
H1533       H  0.51406046  0.98277258  0.16493439     0.18300
N1534       N  0.51964975  0.93832323  0.23908544     0.75800
H1535       H  0.52597602  0.97176142  0.27361252     0.09800
C1536       C  0.52554008  0.01107164  0.29313884     0.03500
C1537       C  0.53878809  0.02714935  0.31481832    -0.05200
C1538       C  0.55991643  0.04481193  0.30710936    -0.23600
C1539       C  0.56689940  0.04721639  0.27629293     0.12700
C1540       C  0.55364416  0.03121341  0.25469718    -0.12800
N1541       N  0.50478430  0.99271893  0.30269792     0.64400
H1542       H  0.53298295  0.02502706  0.33824126     0.12300
N1543       N  0.58770709  0.06537161  0.26653407     0.61000
H1544       H  0.56019450  0.03251089  0.23185799     0.08400
O1545       O  0.50193974  0.92214033  0.24920560    -0.40400
O1546       O  0.53797113  0.93963819  0.24536280    -0.39600
O1547       O  0.53657297  0.03017991  0.18497351    -0.39600
O1548       O  0.50178390  0.01605559  0.19712698    -0.37300
O1549       O  0.60396679  0.06232105  0.26272947    -0.38200
O1550       O  0.58811104  0.08197009  0.25423699    -0.34400
O1551       O  0.50472259  0.97760035  0.31869623    -0.35800
O1552       O  0.48777131  0.99477876  0.30264043    -0.40100
C1553       C  0.68528575  0.98438185  0.11255643    -0.13800
C1554       C  0.67330207  0.96947777  0.08879859     0.16600
C1555       C  0.68501562  0.96833167  0.06324084     0.02900
C1556       C  0.70788162  0.98289812  0.06085500    -0.12300
C1557       C  0.71971023  0.99885375  0.08356741    -0.03300
C1558       C  0.70834266  0.99889002  0.11029160     0.02200
C1559       C  0.64855824  0.95741349  0.08930412     0.09000
N1560       N  0.67387211  0.95273639  0.03916213     0.65400
H1561       H  0.71635739  0.98216341  0.04045868     0.18300
N1562       N  0.71948644  0.01462686  0.13418723     0.75800
H1563       H  0.67653410  0.98568782  0.13222005     0.09800
C1564       C  0.63633269  0.94371775  0.11395835     0.03500
C1565       C  0.61336440  0.93509588  0.11546891    -0.05200
C1566       C  0.60198258  0.93993692  0.09292867    -0.23600
C1567       C  0.61405455  0.95278566  0.06744753     0.12700
C1568       C  0.63711021  0.96141611  0.06595621    -0.12800
N1569       N  0.64699004  0.93863628  0.13795027     0.64400
H1570       H  0.60445057  0.92496804  0.13501708     0.12300
N1571       N  0.60363405  0.95875471  0.04414363     0.61000
H1572       H  0.64629149  0.97232467  0.04718257     0.08400
O1573       O  0.71914219  0.03259287  0.13440181    -0.40400
O1574       O  0.72511271  0.00854032  0.15807459    -0.39600
O1575       O  0.67037682  0.95944793  0.01412016    -0.39600
O1576       O  0.67259269  0.93400295  0.04021744    -0.37300
O1577       O  0.60321155  0.97661212  0.04671941    -0.38200
O1578       O  0.59992921  0.94936048  0.01838931    -0.34400
O1579       O  0.64960444  0.94789024  0.16365506    -0.35800
O1580       O  0.64847499  0.92132981  0.13593798    -0.40100
C1581       C  0.49197371  0.01035225  0.96632473    -0.13800
C1582       C  0.49268125  0.01245692  0.99819074     0.16600
C1583       C  0.49384064  0.03156137  0.01119482     0.02900
C1584       C  0.49371548  0.04776024  0.99227918    -0.12300
C1585       C  0.49248326  0.04543036  0.96025861    -0.03300
C1586       C  0.49179273  0.02648200  0.94744824     0.02200
C1587       C  0.49266821  0.99465798  0.01698035     0.09000
N1588       N  0.49468805  0.03460130  0.04354506     0.65400
H1589       H  0.49434919  0.06217660  0.00283236     0.18300
N1590       N  0.49171269  0.02354697  0.91530347     0.75800
H1591       H  0.49186352  0.99615251  0.95589700     0.09800
C1592       C  0.47556432  0.97238918  0.01394526     0.03500
C1593       C  0.47693574  0.95556643  0.02936750    -0.05200
C1594       C  0.49518323  0.96019793  0.04804775    -0.23600
C1595       C  0.51228504  0.98260146  0.05142265     0.12700
C1596       C  0.51085149  0.99954144  0.03591028    -0.12800
N1597       N  0.45651546  0.96651804  0.99536786     0.64400
H1598       H  0.46340996  0.93864651  0.02668645     0.12300
N1599       N  0.53177283  0.98840410  0.06894395     0.61000
H1600       H  0.52442207  0.01650461  0.03777708     0.08400
O1601       O  0.47365217  0.00984285  0.90280029    -0.40400
O1602       O  0.50971865  0.02812395  0.90240546    -0.39600
O1603       O  0.51290884  0.04816777  0.05592660    -0.39600
O1604       O  0.47684733  0.02833335  0.05806468    -0.37300
O1605       O  0.54864039  0.99005036  0.05565503    -0.38200
O1606       O  0.53399058  0.99720248  0.09491156    -0.34400
O1607       O  0.45468435  0.95719616  0.96990333    -0.35800
O1608       O  0.43955575  0.96552739  0.00739493    -0.40100
C1609       C  0.45243300  0.19367429  0.78772180    -0.13800
C1610       C  0.44261530  0.18395274  0.81580680     0.16600
C1611       C  0.43030976  0.19195972  0.83144853     0.02900
C1612       C  0.42725238  0.20861164  0.81832835    -0.12300
C1613       C  0.43626958  0.21783295  0.78954216    -0.03300
C1614       C  0.44946932  0.21043651  0.77454696     0.02200
C1615       C  0.44513138  0.16531644  0.82810136     0.09000
N1616       N  0.41987580  0.18265309  0.86005413     0.65400
H1617       H  0.41726384  0.21398887  0.83068665     0.18300
N1618       N  0.45952369  0.21918670  0.74558202     0.75800
H1619       H  0.46236660  0.18805974  0.77573651     0.09800
C1620       C  0.43785577  0.14555427  0.81128053     0.03500
C1621       C  0.44036421  0.12826612  0.82321734    -0.05200
C1622       C  0.44997201  0.12992834  0.85209328    -0.23600
C1623       C  0.45788924  0.15005938  0.86857767     0.12700
C1624       C  0.45532429  0.16740655  0.85655814    -0.12800
N1625       N  0.42684436  0.14228807  0.78259005     0.64400
H1626       H  0.43392534  0.11305953  0.81007226     0.12300
N1627       N  0.46899397  0.15346435  0.89719105     0.61000
H1628       H  0.46154706  0.18270918  0.86942643     0.08400
O1629       O  0.45048215  0.20819528  0.72166052    -0.40400
O1630       O  0.47957337  0.23447485  0.74464061    -0.39600
O1631       O  0.42811237  0.19354914  0.88431274    -0.39600
O1632       O  0.40015455  0.16664565  0.86029043    -0.37300
O1633       O  0.48989088  0.16262655  0.89760225    -0.38200
O1634       O  0.45887401  0.15279095  0.92143681    -0.34400
O1635       O  0.43700394  0.14315791  0.75825931    -0.35800
O1636       O  0.40599605  0.13361555  0.78207751    -0.40100
C1637       C  0.31675507  0.15412670  0.63361623    -0.13800
C1638       C  0.31392269  0.15454303  0.66528180     0.16600
C1639       C  0.29368921  0.13866217  0.67854644     0.02900
C1640       C  0.27683646  0.12260433  0.66011993    -0.12300
C1641       C  0.27959689  0.12207161  0.62831164    -0.03300
C1642       C  0.29982808  0.13820625  0.61511664     0.02200
C1643       C  0.33183713  0.17257393  0.68349307     0.09000
N1644       N  0.29012320  0.13834799  0.71074547     0.65400
H1645       H  0.26151617  0.11036160  0.67090342     0.18300
N1646       N  0.30286841  0.13985529  0.58282433     0.75800
H1647       H  0.33197999  0.16673010  0.62302565     0.09800
C1648       C  0.35325168  0.17520330  0.68452747     0.03500
C1649       C  0.37054008  0.19380369  0.69876534    -0.05200
C1650       C  0.36697921  0.21001309  0.71244109    -0.23600
C1651       C  0.34540233  0.20721837  0.71193333     0.12700
C1652       C  0.32807881  0.18858120  0.69744191    -0.12800
N1653       N  0.35763579  0.15889533  0.67168319     0.64400
H1654       H  0.38685193  0.19539793  0.69947226     0.12300
N1655       N  0.34107061  0.22372474  0.72423713     0.61000
H1656       H  0.31179658  0.18700618  0.69612508     0.08400
O1657       O  0.31511915  0.13340021  0.57068780    -0.40400
O1658       O  0.29839427  0.15276603  0.56824287    -0.39600
O1659       O  0.27813839  0.14575257  0.72103731    -0.39600
O1660       O  0.29430878  0.12615660  0.72752037    -0.37300
O1661       O  0.34263937  0.23900738  0.70705386    -0.38200
O1662       O  0.33083862  0.22010560  0.74929853    -0.34400
O1663       O  0.36829965  0.16304197  0.64692084    -0.35800
O1664       O  0.35574616  0.14324610  0.68834618    -0.40100
C1665       C  0.22157296  0.08433385  0.01990171    -0.13800
C1666       C  0.19961769  0.06685318  0.02243528     0.16600
C1667       C  0.18469492  0.07012912  0.04069978     0.02900
C1668       C  0.19187029  0.09069496  0.05537335    -0.12300
C1669       C  0.21377266  0.10842901  0.05209051    -0.03300
C1670       C  0.22870337  0.10487335  0.03410863     0.02200
C1671       C  0.19369722  0.04503452  0.00792691     0.09000
N1672       N  0.16201486  0.05306931  0.04377523     0.65400
H1673       H  0.18002495  0.09295683  0.06872417     0.18300
N1674       N  0.25146776  0.12167841  0.03064661     0.75800
H1675       H  0.23357687  0.08189884  0.00724232     0.09800
C1676       C  0.19820305  0.04351457  0.97674162     0.03500
C1677       C  0.19687477  0.02402579  0.96527026    -0.05200
C1678       C  0.19127925  0.00564633  0.98420065    -0.23600
C1679       C  0.18532714  0.00664989  0.01496441     0.12700
C1680       C  0.18661892  0.02618547  0.02641493    -0.12800
N1681       N  0.20473310  0.06184172  0.95643803     0.64400
H1682       H  0.20131704  0.02376132  0.94158525     0.12300
N1683       N  0.17829704  0.98819662  0.03517791     0.61000
H1684       H  0.18320217  0.02697523  0.05040778     0.08400
O1685       O  0.25767791  0.13268880  0.00613501    -0.40400
O1686       O  0.26582876  0.12167120  0.04823542    -0.39600
O1687       O  0.15543414  0.04273182  0.06875721    -0.39600
O1688       O  0.14789192  0.05225666  0.02495515    -0.37300
O1689       O  0.19199543  0.98808239  0.05396085    -0.38200
O1690       O  0.15779657  0.97522787  0.03933962    -0.34400
O1691       O  0.22482328  0.07321632  0.94848720    -0.35800
O1692       O  0.19008172  0.06278279  0.94059987    -0.40100
C1693       C  0.33118558  0.19740402  0.87971087    -0.13800
C1694       C  0.33321820  0.20773315  0.90798458     0.16600
C1695       C  0.35193073  0.22871654  0.91375977     0.02900
C1696       C  0.36734302  0.23965591  0.89066109    -0.12300
C1697       C  0.36447143  0.23029014  0.86141728    -0.03300
C1698       C  0.34673279  0.20839479  0.85643343     0.02200
C1699       C  0.31512264  0.19752305  0.93061387     0.09000
N1700       N  0.35461912  0.24000223  0.94215043     0.65400
H1701       H  0.38104578  0.25619497  0.89532968     0.18300
N1702       N  0.34363009  0.19741032  0.82771318     0.75800
H1703       H  0.31710311  0.18102705  0.87539860     0.09800
C1704       C  0.29395836  0.19449161  0.92405808     0.03500
C1705       C  0.27894218  0.19010644  0.94781219    -0.05200
C1706       C  0.28478777  0.18904896  0.97819463    -0.23600
C1707       C  0.30511470  0.18984000  0.98426785     0.12700
C1708       C  0.31998384  0.19386215  0.96036056    -0.12800
N1709       N  0.28831710  0.19813936  0.89405812     0.64400
H1710       H  0.26323554  0.18912379  0.94266049     0.12300
N1711       N  0.31219927  0.18946378  0.01477699     0.61000
H1712       H  0.33612704  0.19584962  0.96544663     0.08400
O1713       O  0.32873229  0.19588403  0.80978044    -0.40400
O1714       O  0.35153582  0.18473437  0.82393379    -0.39600
O1715       O  0.36905812  0.24147536  0.96092578    -0.39600
O1716       O  0.34650163  0.25255128  0.94521029    -0.37300
O1717       O  0.30982570  0.17155413  0.02543631    -0.38200
O1718       O  0.32555418  0.20758431  0.02758551    -0.34400
O1719       O  0.27499072  0.18169911  0.87808550    -0.35800
O1720       O  0.29242221  0.21735197  0.88660409    -0.40100
C1721       C  0.33439437  0.16442838  0.20850516    -0.13800
C1722       C  0.33689523  0.16988442  0.17729755     0.16600
C1723       C  0.35708070  0.17522136  0.16281513     0.02900
C1724       C  0.37400794  0.17467959  0.17938062    -0.12300
C1725       C  0.37147701  0.16884199  0.21053394    -0.03300
C1726       C  0.35127686  0.16372270  0.22512372     0.02200
C1727       C  0.31845904  0.17034781  0.16058216     0.09000
N1728       N  0.36050854  0.18062542  0.13103558     0.65400
H1729       H  0.38919945  0.17861658  0.16744890     0.18300
N1730       N  0.34769764  0.15833942  0.25689614     0.75800
H1731       H  0.31928950  0.16097795  0.22026642     0.09800
C1732       C  0.29667409  0.15195719  0.16104978     0.03500
C1733       C  0.27946087  0.15317419  0.14644902    -0.05200
C1734       C  0.28335897  0.17231241  0.13059679    -0.23600
C1735       C  0.30516244  0.19076942  0.12992648     0.12700
C1736       C  0.32239496  0.18968917  0.14508225    -0.12800
N1737       N  0.29184067  0.13151186  0.17517660     0.64400
H1738       H  0.26296109  0.13867717  0.14677274     0.12300
N1739       N  0.30995728  0.21100708  0.11514268     0.61000
H1740       H  0.33885638  0.20421159  0.14521573     0.08400
O1741       O  0.33548061  0.13833204  0.26473039    -0.40400
O1742       O  0.35185880  0.17353348  0.27603047    -0.39600
O1743       O  0.37335615  0.20050299  0.12313026    -0.39600
O1744       O  0.35534446  0.16528815  0.11176458    -0.37300
O1745       O  0.30923702  0.22603485  0.13042026    -0.38200
O1746       O  0.31982753  0.21583421  0.08971288    -0.34400
O1747       O  0.28112824  0.12589930  0.19996961    -0.35800
O1748       O  0.29314986  0.11698917  0.15945272    -0.40100
C1749       C  0.36062310  0.34616665  0.73332431    -0.13800
C1750       C  0.36687775  0.36351841  0.75456532     0.16600
C1751       C  0.38303319  0.36711355  0.77670188     0.02900
C1752       C  0.39181232  0.35290406  0.77817053    -0.12300
C1753       C  0.38491497  0.33500297  0.75779025    -0.03300
C1754       C  0.36952611  0.33197745  0.73467493     0.02200
C1755       C  0.35526281  0.37660505  0.75439507     0.09000
N1756       N  0.39062224  0.38503923  0.79800488     0.65400
H1757       H  0.40372885  0.35553637  0.79596903     0.18300
N1758       N  0.36122821  0.31346174  0.71426275     0.75800
H1759       H  0.34793257  0.34292696  0.71649489     0.09800
C1760       C  0.35537742  0.38835166  0.72819844     0.03500
C1761       C  0.34213894  0.39816370  0.72714450    -0.05200
C1762       C  0.32808763  0.39629227  0.75154897    -0.23600
C1763       C  0.32880776  0.38554921  0.77854207     0.12700
C1764       C  0.34233506  0.37579737  0.77970480    -0.12800
N1765       N  0.36851825  0.39011709  0.70208550     0.64400
H1766       H  0.34230000  0.40671578  0.70635613     0.12300
N1767       N  0.31495114  0.38306244  0.80408848     0.61000
H1768       H  0.34191630  0.36663858  0.79994913     0.08400
O1769       O  0.34411496  0.29547964  0.72155924    -0.40400
O1770       O  0.36769139  0.31656738  0.68682588    -0.39600
O1771       O  0.38394167  0.38102934  0.82532551    -0.39600
O1772       O  0.40759364  0.40338394  0.79159759    -0.37300
O1773       O  0.29699627  0.36498925  0.80767701    -0.38200
O1774       O  0.32301391  0.39635297  0.82629991    -0.34400
O1775       O  0.35921760  0.37819198  0.67893960    -0.35800
O1776       O  0.38757247  0.40699472  0.69930215    -0.40100
C1777       C  0.20577270  0.20789897  0.29324313    -0.13800
C1778       C  0.20503168  0.22071103  0.26882414     0.16600
C1779       C  0.19878802  0.23673154  0.27522821     0.02900
C1780       C  0.19292980  0.23923033  0.30504381    -0.12300
C1781       C  0.19346449  0.22636708  0.32942727    -0.03300
C1782       C  0.20023989  0.21067401  0.32332746     0.02200
C1783       C  0.20934995  0.21614341  0.23673223     0.09000
N1784       N  0.19900652  0.25119056  0.25190471     0.65400
H1785       H  0.18817014  0.25165098  0.30921573     0.18300
N1786       N  0.20027524  0.19646885  0.34686619     0.75800
H1787       H  0.21001220  0.19514425  0.28880402     0.09800
C1788       C  0.22886654  0.21579438  0.22884039     0.03500
C1789       C  0.23139299  0.20934927  0.19937270    -0.05200
C1790       C  0.21510609  0.20373440  0.17681029    -0.23600
C1791       C  0.19590694  0.20481334  0.18417103     0.12700
C1792       C  0.19309876  0.21073401  0.21397399    -0.12800
N1793       N  0.24665262  0.22262325  0.25016800     0.64400
H1794       H  0.24637463  0.20890041  0.19397521     0.12300
N1795       N  0.17852898  0.19869937  0.16233191     0.61000
H1796       H  0.17778262  0.21042324  0.21959361     0.08400
O1797       O  0.21851957  0.20027022  0.35821242    -0.40400
O1798       O  0.18323324  0.17765765  0.35074280    -0.39600
O1799       O  0.18083398  0.24839060  0.24164209    -0.39600
O1800       O  0.21654114  0.26950217  0.24745789    -0.37300
O1801       O  0.16254071  0.17896299  0.16183197    -0.38200
O1802       O  0.17642879  0.21371166  0.14928108    -0.34400
O1803       O  0.25056896  0.20827734  0.26155565    -0.35800
O1804       O  0.26137957  0.24288059  0.25152658    -0.40100
C1805       C  0.18638077  0.12821557  0.53074279    -0.13800
C1806       C  0.20364179  0.14684392  0.51616644     0.16600
C1807       C  0.22503158  0.14940726  0.51559987     0.02900
C1808       C  0.22878326  0.13340608  0.52918638    -0.12300
C1809       C  0.21168200  0.11475393  0.54409928    -0.03300
C1810       C  0.19018272  0.11220938  0.54470507     0.02200
C1811       C  0.19978993  0.16465884  0.50455949     0.09000
N1812       N  0.24350114  0.16892988  0.50318585     0.65400
H1813       H  0.24552066  0.13608390  0.52895295     0.18300
N1814       N  0.17195892  0.09340646  0.55883502     0.75800
H1815       H  0.16992426  0.12625457  0.53163224     0.09800
C1816       C  0.19935156  0.16869613  0.47309046     0.03500
C1817       C  0.19855311  0.18747828  0.46336471    -0.05200
C1818       C  0.19807395  0.20252644  0.48448944    -0.23600
C1819       C  0.19682035  0.19739194  0.51610368     0.12700
C1820       C  0.19784241  0.17870587  0.52569783    -0.12800
N1821       N  0.19956553  0.15384995  0.45067295     0.64400
H1822       H  0.19899235  0.19057355  0.43903238     0.12300
N1823       N  0.19472580  0.21095350  0.53893342     0.61000
H1824       H  0.19772489  0.17547181  0.54995670     0.08400
O1825       O  0.15851554  0.07735847  0.54237299    -0.40400
O1826       O  0.16634587  0.09521067  0.58565246    -0.39600
O1827       O  0.25494703  0.18518837  0.52063833    -0.39600
O1828       O  0.25159860  0.16772269  0.47792594    -0.37300
O1829       O  0.17570267  0.20548189  0.54918487    -0.38200
O1830       O  0.21167200  0.22455797  0.55383737    -0.34400
O1831       O  0.18132260  0.13861143  0.44030476    -0.35800
O1832       O  0.21711164  0.15951613  0.43571392    -0.40100
C1833       C  0.19329101  0.30871000  0.58618846    -0.13800
C1834       C  0.19340377  0.32827022  0.57807319     0.16600
C1835       C  0.18847109  0.33095871  0.54761398     0.02900
C1836       C  0.18452874  0.31467074  0.52582874    -0.12300
C1837       C  0.18589457  0.29581095  0.53352279    -0.03300
C1838       C  0.18950746  0.29248743  0.56438651     0.02200
C1839       C  0.20254219  0.34688811  0.60027211     0.09000
N1840       N  0.18853571  0.35061922  0.53798144     0.65400
H1841       H  0.18169876  0.31752501  0.50233488     0.18300
N1842       N  0.19003023  0.27310865  0.57396845     0.75800
H1843       H  0.19763966  0.30659603  0.60920426     0.09800
C1844       C  0.19469670  0.34414936  0.63064670     0.03500
C1845       C  0.20675757  0.36056248  0.65242522    -0.05200
C1846       C  0.22689206  0.37957675  0.64476890    -0.23600
C1847       C  0.23403828  0.38293148  0.61402012     0.12700
C1848       C  0.22191595  0.36658827  0.59223854    -0.12800
N1849       N  0.17521350  0.32431897  0.64022235     0.64400
H1850       H  0.20098218  0.35768997  0.67589914     0.12300
N1851       N  0.25387663  0.40247601  0.60458676     0.61000
H1852       H  0.22858711  0.36873811  0.56933195     0.08400
O1853       O  0.17316137  0.25758357  0.58685966    -0.40400
O1854       O  0.20850135  0.27396015  0.57663509    -0.39600
O1855       O  0.20455873  0.36476012  0.52212323    -0.39600
O1856       O  0.17050012  0.35080336  0.53790964    -0.37300
O1857       O  0.27165522  0.40191060  0.60202484    -0.38200
O1858       O  0.25241653  0.41799168  0.59194648    -0.34400
O1859       O  0.17726349  0.31055042  0.65666226    -0.35800
O1860       O  0.15675142  0.32362168  0.63950469    -0.40100
C1861       C  0.30898352  0.46852689  0.89931853    -0.13800
C1862       C  0.32525087  0.46282838  0.90526632     0.16600
C1863       C  0.33098663  0.45246976  0.88218376     0.02900
C1864       C  0.32055429  0.44814909  0.85353577    -0.12300
C1865       C  0.30399822  0.45358911  0.84746864    -0.03300
C1866       C  0.29823338  0.46390916  0.87092045     0.02200
C1867       C  0.33570522  0.46759561  0.93593101     0.09000
N1868       N  0.34705899  0.44583935  0.88766790     0.65400
H1869       H  0.32508658  0.43998904  0.83620004     0.18300
N1870       N  0.28178148  0.47018083  0.86630929     0.75800
H1871       H  0.30448142  0.47650575  0.91697912     0.09800
C1872       C  0.35416800  0.48843473  0.94277980     0.03500
C1873       C  0.36315555  0.49287667  0.97225090    -0.05200
C1874       C  0.35388238  0.47700983  0.99578312    -0.23600
C1875       C  0.33479240  0.45625773  0.98903618     0.12700
C1876       C  0.32609424  0.45171454  0.95920257    -0.12800
N1877       N  0.36379646  0.50546494  0.92014990     0.64400
H1878       H  0.37749935  0.50905164  0.97667647     0.12300
N1879       N  0.32393242  0.43961811  0.01196262     0.61000
H1880       H  0.31152489  0.43580116  0.95426983     0.08400
O1881       O  0.28787357  0.49005505  0.85953625    -0.40400
O1882       O  0.26241430  0.45782636  0.87649661    -0.39600
O1883       O  0.34057167  0.42585461  0.89429366    -0.39600
O1884       O  0.36685885  0.45830960  0.87916191    -0.37300
O1885       O  0.32660118  0.42297160  0.01221267    -0.38200
O1886       O  0.30785450  0.43877985  0.02649569    -0.34400
O1887       O  0.35872233  0.52052282  0.91980981    -0.35800
O1888       O  0.38085310  0.50842541  0.90593747    -0.40100
C1889       C  0.32126680  0.36242340  0.05737775    -0.13800
C1890       C  0.30375479  0.35038880  0.07802676     0.16600
C1891       C  0.30003358  0.36194135  0.10161817     0.02900
C1892       C  0.31429981  0.38479290  0.10519227    -0.12300
C1893       C  0.33249441  0.39669657  0.08564136    -0.03300
C1894       C  0.33567075  0.38542669  0.06099341     0.02200
C1895       C  0.29115266  0.32566220  0.07682449     0.09000
N1896       N  0.28208112  0.35059644  0.12262317     0.65400
H1897       H  0.31148997  0.39322705  0.12404644     0.18300
N1898       N  0.35460526  0.39646162  0.04144246     0.75800
H1899       H  0.32459686  0.35370654  0.03947015     0.09800
C1900       C  0.27838169  0.31403954  0.05117918     0.03500
C1901       C  0.26780797  0.29082876  0.05030739    -0.05200
C1902       C  0.27006674  0.27860933  0.07427149    -0.23600
C1903       C  0.28289727  0.29025920  0.10001479     0.12700
C1904       C  0.29305746  0.31353942  0.10118454    -0.12800
N1905       N  0.27621213  0.32552996  0.02556804     0.64400
H1906       H  0.25819753  0.28231769  0.03018661     0.12300
N1907       N  0.28755982  0.27907982  0.12372873     0.61000
H1908       H  0.30339339  0.32230677  0.12065228     0.08400
O1909       O  0.37240929  0.39708090  0.04897908    -0.40400
O1910       O  0.35198823  0.40036628  0.01406678    -0.39600
O1911       O  0.28605427  0.34675551  0.14937094    -0.39600
O1912       O  0.26367804  0.34927029  0.11695172    -0.37300
O1913       O  0.30466956  0.27724736  0.12169678    -0.38200
O1914       O  0.27804176  0.27608545  0.14927330    -0.34400
O1915       O  0.28783418  0.32833076  0.00203576    -0.35800
O1916       O  0.25926718  0.32762556  0.02354752    -0.40100
C1917       C  0.47510381  0.35099070  0.56316923    -0.13800
C1918       C  0.45288986  0.33478653  0.56795866     0.16600
C1919       C  0.43763853  0.32899168  0.54369430     0.02900
C1920       C  0.44481840  0.33947697  0.51519086    -0.12300
C1921       C  0.46700731  0.35616331  0.51048300    -0.03300
C1922       C  0.48225860  0.36178271  0.53494093     0.02200
C1923       C  0.44615399  0.32469661  0.59878104     0.09000
N1924       N  0.41461071  0.31339550  0.54806425     0.65400
H1925       H  0.43272818  0.33517928  0.49705653     0.18300
N1926       N  0.50512612  0.37831145  0.53159247     0.75800
H1927       H  0.48696338  0.35549380  0.58166958     0.09800
C1928       C  0.44462142  0.30423298  0.60558228     0.03500
C1929       C  0.44021230  0.29611034  0.63552637    -0.05200
C1930       C  0.43729481  0.30798673  0.65953209    -0.23600
C1931       C  0.43893272  0.32864011  0.65257382     0.12700
C1932       C  0.44333181  0.33673829  0.62240925    -0.12800
N1933       N  0.44824421  0.29179225  0.58256019     0.64400
H1934       H  0.43930107  0.28034734  0.63991510     0.12300
N1935       N  0.43616098  0.34163185  0.67559243     0.61000
H1936       H  0.44483168  0.35269732  0.61744480     0.08400
O1937       O  0.51906281  0.37238021  0.52506068    -0.40400
O1938       O  0.51189953  0.39752052  0.54225887    -0.39600
O1939       O  0.40175448  0.32038467  0.55602127    -0.39600
O1940       O  0.40649699  0.29413977  0.53691483    -0.37300
O1941       O  0.45308495  0.35690162  0.68874569    -0.38200
O1942       O  0.41799192  0.34149643  0.67730406    -0.34400
O1943       O  0.46699254  0.29316278  0.58074852    -0.35800
O1944       O  0.43173300  0.27570806  0.56985944    -0.40100
C1945       C  0.44557961  0.30240559  0.31305337    -0.13800
C1946       C  0.45212948  0.29017820  0.33123442     0.16600
C1947       C  0.46049374  0.29810980  0.36076438     0.02900
C1948       C  0.46178635  0.31778767  0.37172020    -0.12300
C1949       C  0.45465483  0.32990626  0.35387009    -0.03300
C1950       C  0.44661304  0.32190843  0.32390270     0.02200
C1951       C  0.44893795  0.26870354  0.31913926     0.09000
N1952       N  0.46736772  0.28617517  0.38016814     0.65400
H1953       H  0.46796064  0.32329345  0.39466819     0.18300
N1954       N  0.43825096  0.33256297  0.30451564     0.75800
H1955       H  0.43895029  0.29637786  0.29040806     0.09800
C1956       C  0.42895127  0.24872573  0.32424651     0.03500
C1957       C  0.42528758  0.22902521  0.31036083    -0.05200
C1958       C  0.44098128  0.22849692  0.29047727    -0.23600
C1959       C  0.46102155  0.24867924  0.28507636     0.12700
C1960       C  0.46483238  0.26845490  0.29953497    -0.12800
N1961       N  0.41161545  0.24832470  0.34225016     0.64400
H1962       H  0.40954622  0.21407303  0.31459991     0.12300
N1963       N  0.47765310  0.24954174  0.26504310     0.61000
H1964       H  0.48009761  0.28381772  0.29489692     0.08400
O1965       O  0.41760549  0.32529799  0.30372581    -0.40400
O1966       O  0.45031406  0.34488670  0.28315594    -0.39600
O1967       O  0.48780998  0.29291412  0.38313664    -0.39600
O1968       O  0.45382712  0.27257905  0.39931749    -0.37300
O1969       O  0.47843539  0.25580101  0.23777851    -0.38200
O1970       O  0.49429915  0.24941449  0.27622643    -0.34400
O1971       O  0.39620469  0.24965074  0.32903932    -0.35800
O1972       O  0.40874494  0.24112997  0.36930045    -0.40100
C1973       C  0.46579379  0.47028328  0.29846933    -0.13800
C1974       C  0.46072126  0.46178539  0.26874773     0.16600
C1975       C  0.46150058  0.44250633  0.26121149     0.02900
C1976       C  0.46564332  0.43107190  0.28402029    -0.12300
C1977       C  0.46900059  0.43851836  0.31442242    -0.03300
C1978       C  0.47001136  0.45889634  0.32138353     0.02200
C1979       C  0.45218859  0.47157835  0.24664865     0.09000
N1980       N  0.45628062  0.43332198  0.23107842     0.65400
H1981       H  0.46515743  0.41569125  0.27812913     0.18300
N1982       N  0.47329749  0.46728913  0.35192266     0.75800
H1983       H  0.46534239  0.48521558  0.30423357     0.09800
C1984       C  0.43102584  0.46911919  0.25056096     0.03500
C1985       C  0.42136838  0.47450139  0.22664955    -0.05200
C1986       C  0.43235365  0.48212749  0.19846194    -0.23600
C1987       C  0.45463591  0.48704828  0.19610652     0.12700
C1988       C  0.46422828  0.48144540  0.22006803    -0.12800
N1989       N  0.41829611  0.45923632  0.27755716     0.64400
H1990       H  0.40451232  0.47120200  0.22958660     0.12300
N1991       N  0.46734861  0.49622509  0.16904372     0.61000
H1992       H  0.48080654  0.48391031  0.21738985     0.08400
O1993       O  0.45659799  0.46278893  0.36823535    -0.40400
O1994       O  0.49203516  0.48324740  0.35950353    -0.39600
O1995       O  0.47169475  0.43538380  0.21371939    -0.39600
O1996       O  0.43640330  0.41946972  0.22436473    -0.37300
O1997       O  0.47784066  0.51706670  0.16590706    -0.38200
O1998       O  0.47357952  0.48473170  0.15424863    -0.34400
O1999       O  0.41654575  0.47142724  0.29744526    -0.35800
O2000       O  0.40525319  0.43851154  0.27837680    -0.40100
C2001       C  0.30578015  0.29957338  0.40368448    -0.13800
C2002       C  0.31643934  0.29270962  0.42466405     0.16600
C2003       C  0.30365172  0.27706693  0.44722501     0.02900
C2004       C  0.28077147  0.26900713  0.44893558    -0.12300
C2005       C  0.27018210  0.27641896  0.42870310    -0.03300
C2006       C  0.28287568  0.29175195  0.40567321     0.02200
C2007       C  0.34108648  0.30387134  0.42431184     0.09000
N2008       N  0.31368533  0.26949793  0.46895386     0.65400
H2009       H  0.27128003  0.25731945  0.46687426     0.18300
N2010       N  0.27336226  0.30133589  0.38635466     0.75800
H2011       H  0.31553270  0.31203444  0.38670648     0.09800
C2012       C  0.35246513  0.30186727  0.39901146     0.03500
C2013       C  0.37540789  0.31600044  0.39624236    -0.05200
C2014       C  0.38753164  0.33228636  0.41841299    -0.23600
C2015       C  0.37641742  0.33326036  0.44487510     0.12700
C2016       C  0.35333016  0.31908925  0.44757868    -0.12800
N2017       N  0.34084553  0.28589494  0.37554081     0.64400
H2018       H  0.38371272  0.31474284  0.37599125     0.12300
N2019       N  0.38781020  0.34990607  0.46765378     0.61000
H2020       H  0.34473146  0.32094922  0.46702364     0.08400
O2021       O  0.26888424  0.29498814  0.35893910    -0.40400
O2022       O  0.27444568  0.31930433  0.39430833    -0.39600
O2023       O  0.31721541  0.27724456  0.49576523    -0.39600
O2024       O  0.31374542  0.25167655  0.46379633    -0.37300
O2025       O  0.39296202  0.34461744  0.49263643    -0.38200
O2026       O  0.38827449  0.36822892  0.46558244    -0.34400
O2027       O  0.33727834  0.29223496  0.35024397    -0.35800
O2028       O  0.33874905  0.26684104  0.37756101    -0.40100
C2029       C  0.53019301  0.39906948  0.86821194    -0.13800
C2030       C  0.51273312  0.39836224  0.85122410     0.16600
C2031       C  0.51120088  0.41771586  0.84879244     0.02900
C2032       C  0.52719628  0.43738853  0.86259868    -0.12300
C2033       C  0.54484068  0.43838205  0.87958578    -0.03300
C2034       C  0.54618640  0.41882559  0.88245395     0.02200
C2035       C  0.49487582  0.37689011  0.83903000     0.09000
N2036       N  0.49277789  0.41741039  0.83390219     0.65400
H2037       H  0.52537167  0.45192323  0.86057855     0.18300
N2038       N  0.56371482  0.41870906  0.89926921     0.75800
H2039       H  0.53124311  0.38412362  0.87072541     0.09800
C2040       C  0.49294286  0.37157551  0.80768031     0.03500
C2041       C  0.47442808  0.35204465  0.79693027    -0.05200
C2042       C  0.45747420  0.33751095  0.81691550    -0.23600
C2043       C  0.46013701  0.34258791  0.84870668     0.12700
C2044       C  0.47869709  0.36205634  0.85924899    -0.12800
N2045       N  0.50957895  0.38586287  0.78642840     0.64400
H2046       H  0.47311155  0.34859589  0.77262427     0.12300
N2047       N  0.44381551  0.32881843  0.87069447     0.61000
H2048       H  0.48009711  0.36601566  0.88342193     0.08400
O2049       O  0.58040916  0.42065597  0.88511826    -0.40400
O2050       O  0.56020207  0.41157397  0.92638353    -0.39600
O2051       O  0.47640920  0.41457156  0.84978238    -0.39600
O2052       O  0.49543435  0.42580414  0.80760775    -0.37300
O2053       O  0.44728704  0.31594752  0.88708343    -0.38200
O2054       O  0.42923411  0.33350880  0.87882282    -0.34400
O2055       O  0.52484894  0.38192920  0.77928308    -0.35800
O2056       O  0.50598908  0.39845625  0.76962345    -0.40100
C2057       C  0.50254523  0.48549492  0.98260624    -0.13800
C2058       C  0.50358365  0.50614682  0.98441424     0.16600
C2059       C  0.52141975  0.52466514  0.96992159     0.02900
C2060       C  0.53776245  0.52218503  0.95440456    -0.12300
C2061       C  0.53714383  0.50168532  0.95372072    -0.03300
C2062       C  0.51905322  0.48312631  0.96764974     0.02200
C2063       C  0.48677275  0.50780869  0.00371481     0.09000
N2064       N  0.52420501  0.54639288  0.97256280     0.65400
H2065       H  0.55160290  0.53665496  0.94405200     0.18300
N2066       N  0.51685456  0.46159081  0.96622367     0.75800
H2067       H  0.48889591  0.47107340  0.99335772     0.09800
C2068       C  0.47163471  0.51381526  0.99197216     0.03500
C2069       C  0.45526157  0.51350658  0.01105460    -0.05200
C2070       C  0.45316019  0.50699852  0.04194469    -0.23600
C2071       C  0.46836273  0.50096796  0.05349971     0.12700
C2072       C  0.48491376  0.50154811  0.03452905    -0.12800
N2073       N  0.47162370  0.51897942  0.96039400     0.64400
H2074       H  0.44371325  0.51791214  0.00117220     0.12300
N2075       N  0.46804273  0.49513720  0.08472711     0.61000
H2076       H  0.49641556  0.49690497  0.04398654     0.08400
O2077       O  0.50526740  0.44836706  0.94526593    -0.40400
O2078       O  0.52193694  0.45416618  0.98926023    -0.39600
O2079       O  0.53428625  0.55809038  0.99555049    -0.39600
O2080       O  0.52262621  0.55584884  0.94888062    -0.37300
O2081       O  0.45822558  0.47485579  0.09199118    -0.38200
O2082       O  0.48264681  0.50926311  0.10232922    -0.34400
O2083       O  0.46075006  0.50329562  0.94185369    -0.35800
O2084       O  0.47617905  0.53836708  0.95313712    -0.40100
C2085       C  0.39710391  0.54010835  0.64226066    -0.13800
C2086       C  0.39699354  0.52363214  0.66089611     0.16600
C2087       C  0.41692845  0.52329756  0.66484492     0.02900
C2088       C  0.43635743  0.53926514  0.65037463    -0.12300
C2089       C  0.43657177  0.55566198  0.63126645    -0.03300
C2090       C  0.41654410  0.55600179  0.62745170     0.02200
C2091       C  0.37547877  0.50570786  0.67312473     0.09000
N2092       N  0.41754708  0.50601873  0.68167846     0.65400
H2093       H  0.45128379  0.53826114  0.65345738     0.18300
N2094       N  0.41553189  0.57234485  0.60889116     0.75800
H2095       H  0.38183529  0.54041541  0.63879887     0.09800
C2096       C  0.37088507  0.50224239  0.70469789     0.03500
C2097       C  0.35065515  0.48432725  0.71474189    -0.05200
C2098       C  0.33447439  0.46976493  0.69390327    -0.23600
C2099       C  0.33873519  0.47414524  0.66218744     0.12700
C2100       C  0.35910447  0.49179728  0.65227495    -0.12800
N2101       N  0.38611009  0.51719782  0.72688394     0.64400
H2102       H  0.34777317  0.48171767  0.73911956     0.12300
N2103       N  0.32259057  0.46109661  0.63956012     0.61000
H2104       H  0.36223696  0.49456996  0.62794213     0.08400
O2105       O  0.41635611  0.58906787  0.62150530    -0.40400
O2106       O  0.40846156  0.56746305  0.58181724    -0.39600
O2107       O  0.41388417  0.48860879  0.66773458    -0.39600
O2108       O  0.42794290  0.51075081  0.70670787    -0.37300
O2109       O  0.31021400  0.46788630  0.62885647    -0.38200
O2110       O  0.32447499  0.44635751  0.62525382    -0.34400
O2111       O  0.38549638  0.53455874  0.73340934    -0.35800
O2112       O  0.39512066  0.51023367  0.74542925    -0.40100
C2113       C  0.53156339  0.69744727  0.69748901    -0.13800
C2114       C  0.52991984  0.71207116  0.67701683     0.16600
C2115       C  0.52778636  0.70686903  0.64548838     0.02900
C2116       C  0.52837245  0.68809714  0.63507620    -0.12300
C2117       C  0.53114104  0.67398091  0.65531234    -0.03300
C2118       C  0.53206547  0.67855723  0.68713753     0.02200
C2119       C  0.53398229  0.73413288  0.68830846     0.09000
N2120       N  0.52541905  0.72070818  0.62348151     0.65400
H2121       H  0.52727896  0.68500207  0.61068179     0.18300
N2122       N  0.53434385  0.66480569  0.70939871     0.75800
H2123       H  0.53369866  0.70130457  0.72167317     0.09800
C2124       C  0.52229854  0.73654965  0.71310958     0.03500
C2125       C  0.52842193  0.75783560  0.72437299    -0.05200
C2126       C  0.54631498  0.77715349  0.71174934    -0.23600
C2127       C  0.55788180  0.77452560  0.68681888     0.12700
C2128       C  0.55170878  0.75333136  0.67568051    -0.12800
N2129       N  0.50419672  0.71763781  0.72725390     0.64400
H2130       H  0.51917361  0.75913745  0.74341783     0.12300
N2131       N  0.57698611  0.79295248  0.67364815     0.61000
H2132       H  0.56162565  0.75188050  0.65770519     0.08400
O2133       O  0.51737947  0.65067932  0.72377210    -0.40400
O2134       O  0.55335722  0.67047948  0.71985835    -0.39600
O2135       O  0.54168887  0.73304390  0.60655637    -0.39600
O2136       O  0.50616532  0.71609501  0.61543158    -0.37300
O2137       O  0.59593503  0.79689116  0.68211405    -0.38200
O2138       O  0.57508453  0.80094081  0.64870255    -0.34400
O2139       O  0.50703140  0.71147480  0.75315578    -0.35800
O2140       O  0.48469410  0.71117579  0.71814165    -0.40100
C2141       C  0.48775250  0.47437604  0.51124548    -0.13800
C2142       C  0.49018250  0.49259628  0.49433307     0.16600
C2143       C  0.49175599  0.49212702  0.46213731     0.02900
C2144       C  0.49140219  0.47387937  0.44776042    -0.12300
C2145       C  0.48979331  0.45602141  0.46481092    -0.03300
C2146       C  0.48747562  0.45619222  0.49686041     0.02200
C2147       C  0.49194283  0.51208190  0.51115776     0.09000
N2148       N  0.49514431  0.51055006  0.44377997     0.65400
H2149       H  0.49337602  0.47414680  0.42315704     0.18300
N2150       N  0.48405072  0.43769995  0.51505414     0.75800
H2151       H  0.48614992  0.47432187  0.53590000     0.09800
C2152       C  0.47519460  0.51778512  0.50968840     0.03500
C2153       C  0.47719896  0.53575270  0.52677947    -0.05200
C2154       C  0.49537128  0.54817075  0.54641861    -0.23600
C2155       C  0.51187039  0.54197885  0.54853816     0.12700
C2156       C  0.51008737  0.52425229  0.53077842    -0.12800
N2157       N  0.45522843  0.50457917  0.49278505     0.64400
H2158       H  0.46387934  0.53950979  0.52529940     0.12300
N2159       N  0.53054514  0.55337030  0.56840870     0.61000
H2160       H  0.52289908  0.51978432  0.53256438     0.08400
O2161       O  0.50008053  0.43872603  0.52989023    -0.40400
O2162       O  0.46449122  0.42278709  0.52146133    -0.39600
O2163       O  0.51475327  0.52550831  0.43772269    -0.39600
O2164       O  0.47953639  0.50857429  0.42694614    -0.37300
O2165       O  0.53044058  0.54475450  0.59382688    -0.38200
O2166       O  0.54876523  0.56829474  0.55755365    -0.34400
O2167       O  0.43935667  0.48797131  0.50563289    -0.35800
O2168       O  0.45124554  0.51286307  0.46968642    -0.40100
C2169       C  0.52672605  0.51831280  0.78184428    -0.13800
C2170       C  0.53827993  0.52901367  0.75518376     0.16600
C2171       C  0.56020610  0.53352513  0.75112781     0.02900
C2172       C  0.57081308  0.52899842  0.77468518    -0.12300
C2173       C  0.56018338  0.52047550  0.80283783    -0.03300
C2174       C  0.53739964  0.51385471  0.80565570     0.02200
C2175       C  0.52959913  0.54012926  0.73563810     0.09000
N2176       N  0.57287557  0.54523817  0.72484925     0.65400
H2177       H  0.58810412  0.53381976  0.77155290     0.18300
N2178       N  0.52522280  0.50400188  0.83304839     0.75800
H2179       H  0.50983406  0.51484591  0.78505646     0.09800
C2180       C  0.52236648  0.53323884  0.70553909     0.03500
C2181       C  0.51840541  0.54689879  0.68630734    -0.05200
C2182       C  0.52204636  0.56768652  0.69636956    -0.23600
C2183       C  0.52786818  0.57380108  0.72728970     0.12700
C2184       C  0.53145421  0.55992013  0.74656333    -0.12800
N2185       N  0.51974479  0.51289166  0.69378718     0.64400
H2186       H  0.51370541  0.54170301  0.66281648     0.12300
N2187       N  0.53093593  0.59426248  0.73936190     0.61000
H2188       H  0.53693294  0.56523057  0.76983161     0.08400
O2189       O  0.51244002  0.48323430  0.83404938    -0.40400
O2190       O  0.52315230  0.51610704  0.85276289    -0.39600
O2191       O  0.58423802  0.56616887  0.72567317    -0.39600
O2192       O  0.57722792  0.53488533  0.70485299    -0.37300
O2193       O  0.51545525  0.59415610  0.75455003    -0.38200
O2194       O  0.55036340  0.61063334  0.74178212    -0.34400
O2195       O  0.50070327  0.49578781  0.69402975    -0.35800
O2196       O  0.53437303  0.51348176  0.67612215    -0.40100
C2197       C  0.54126582  0.69637775  0.40573291    -0.13800
C2198       C  0.54159691  0.67658222  0.40913990     0.16600
C2199       C  0.54551451  0.66690901  0.38334588     0.02900
C2200       C  0.54930722  0.67727170  0.35471532    -0.12300
C2201       C  0.54904424  0.69723256  0.35101623    -0.03300
C2202       C  0.54468498  0.70666083  0.37716233     0.02200
C2203       C  0.53597331  0.66557348  0.43942288     0.09000
N2204       N  0.54587477  0.64664062  0.38587175     0.65400
H2205       H  0.55262889  0.66964687  0.33534245     0.18300
N2206       N  0.54299058  0.72628336  0.37531392     0.75800
H2207       H  0.53773549  0.70363861  0.42537046     0.09800
C2208       C  0.55152495  0.67296506  0.46345179     0.03500
C2209       C  0.54496794  0.66376663  0.49275642    -0.05200
C2210       C  0.52302356  0.64701914  0.49866779    -0.23600
C2211       C  0.50734244  0.63999106  0.47452069     0.12700
C2212       C  0.51396883  0.64923675  0.44528626    -0.12800
N2213       N  0.57411396  0.68961747  0.45831228     0.64400
H2214       H  0.55722847  0.66943840  0.51082111     0.12300
N2215       N  0.48438447  0.62434417  0.47957062     0.61000
H2216       H  0.50171035  0.64403967  0.42720197     0.08400
O2217       O  0.55724403  0.74364555  0.38883798    -0.40400
O2218       O  0.52462642  0.72451535  0.36803258    -0.39600
O2219       O  0.52954836  0.62886220  0.37616505    -0.39600
O2220       O  0.56410587  0.64738214  0.39072655    -0.37300
O2221       O  0.47143150  0.63132235  0.48707070    -0.38200
O2222       O  0.47636596  0.60471743  0.46982851    -0.34400
O2223       O  0.58129477  0.70890687  0.46891142    -0.35800
O2224       O  0.58770116  0.68396308  0.44882396    -0.40100
C2225       C  0.46293792  0.60629715  0.13357089    -0.13800
C2226       C  0.47643384  0.60605765  0.15729290     0.16600
C2227       C  0.47303144  0.58539518  0.16761411     0.02900
C2228       C  0.45703180  0.56572890  0.15366735    -0.12300
C2229       C  0.44405853  0.56580731  0.12897782    -0.03300
C2230       C  0.44694948  0.58654732  0.11932761     0.02200
C2231       C  0.49433175  0.62739270  0.17047571     0.09000
N2232       N  0.48652881  0.58404840  0.19116069     0.65400
H2233       H  0.45534492  0.55026731  0.16188375     0.18300
N2234       N  0.43401676  0.58805518  0.09510024     0.75800
H2235       H  0.46492456  0.62198639  0.12585560     0.09800
C2236       C  0.51088586  0.64383116  0.15175874     0.03500
C2237       C  0.52820162  0.66313428  0.16479981    -0.05200
C2238       C  0.52987594  0.66669661  0.19664616    -0.23600
C2239       C  0.51266856  0.65059732  0.21533521     0.12700
C2240       C  0.49519316  0.63126789  0.20212132    -0.12800
N2241       N  0.51117052  0.64062782  0.11952399     0.64400
H2242       H  0.54091929  0.67503845  0.14966169     0.12300
N2243       N  0.51265365  0.65332277  0.24771710     0.61000
H2244       H  0.48226934  0.61909939  0.21677345     0.08400
O2245       O  0.44244146  0.59368337  0.06878235    -0.40400
O2246       O  0.41694268  0.58921740  0.10152524    -0.39600
O2247       O  0.47830892  0.57735353  0.21737670    -0.39600
O2248       O  0.50409583  0.58407490  0.18389940    -0.37300
O2249       O  0.50213798  0.66207709  0.25895010    -0.38200
O2250       O  0.51832145  0.64244743  0.26488335    -0.34400
O2251       O  0.50603697  0.65152960  0.10157724    -0.35800
O2252       O  0.52116139  0.63106999  0.10916752    -0.40100
C2253       C  0.53812126  0.79953074  0.17329824    -0.13800
C2254       C  0.53932900  0.81711026  0.19065257     0.16600
C2255       C  0.54362013  0.81776270  0.22241954     0.02900
C2256       C  0.54718123  0.80146415  0.23571439    -0.12300
C2257       C  0.54726941  0.78476377  0.21789544    -0.03300
C2258       C  0.54252354  0.78377316  0.18638892     0.02200
C2259       C  0.53598151  0.83437949  0.17520314     0.09000
N2260       N  0.54575643  0.83552607  0.24127344     0.65400
H2261       H  0.55108745  0.80258067  0.25986806     0.18300
N2262       N  0.54174329  0.76666371  0.16740255     0.75800
H2263       H  0.53384837  0.79803535  0.14928346     0.09800
C2264       C  0.54716479  0.84471557  0.14773980     0.03500
C2265       C  0.54388160  0.86102799  0.13412811    -0.05200
C2266       C  0.53020644  0.86806067  0.14769714    -0.23600
C2267       C  0.51838059  0.85727254  0.17451015     0.12700
C2268       C  0.52106849  0.84036289  0.18762501    -0.12800
N2269       N  0.56318082  0.84010136  0.13440530     0.64400
H2270       H  0.55339333  0.86935454  0.11386106     0.12300
N2271       N  0.50341343  0.86306214  0.18856365     0.61000
H2272       H  0.51149830  0.83196377  0.20777126     0.08400
O2273       O  0.55817331  0.77095426  0.15061413    -0.40400
O2274       O  0.52320454  0.74969750  0.16175365    -0.39600
O2275       O  0.53063743  0.83182226  0.26029371    -0.39600
O2276       O  0.56463192  0.85259592  0.24449791    -0.37300
O2277       O  0.48296304  0.85171630  0.18251714    -0.38200
O2278       O  0.50955902  0.87524197  0.21206315    -0.34400
O2279       O  0.55857839  0.82938583  0.10961805    -0.35800
O2280       O  0.58323268  0.85156659  0.14245816    -0.40100
C2281       C  0.69446205  0.85135434  0.34472645    -0.13800
C2282       C  0.67317567  0.84868637  0.34750075     0.16600
C2283       C  0.67006740  0.86290055  0.36753332     0.02900
C2284       C  0.68821674  0.87980370  0.38313456    -0.12300
C2285       C  0.70966063  0.88309593  0.37917758    -0.03300
C2286       C  0.71265764  0.86843941  0.36001605     0.02200
C2287       C  0.65439322  0.83031422  0.33059075     0.09000
N2288       N  0.64874274  0.86081184  0.37190787     0.65400
H2289       H  0.68553117  0.89074933  0.39794970     0.50700
N2290       N  0.73384381  0.87003179  0.35674026     0.75800
H2291       H  0.69697427  0.83982136  0.33103576     0.09800
C2292       C  0.65551073  0.82694575  0.29888243     0.03500
C2293       C  0.63752620  0.80921887  0.28400393    -0.05200
C2294       C  0.61823293  0.79445954  0.30006712    -0.23600
C2295       C  0.61755617  0.79738094  0.33203268     0.12700
C2296       C  0.63549415  0.81510519  0.34681752    -0.12800
N2297       N  0.67463032  0.84152173  0.28125336     0.64400
H2298       H  0.63858091  0.80726983  0.25957845     0.12300
N2299       N  0.59936806  0.78185687  0.35028614     0.61000
H2300       H  0.63483283  0.81660340  0.37139366     0.08400
O2301       O  0.74482374  0.87808526  0.33251090    -0.40400
O2302       O  0.73898797  0.85893959  0.37430550    -0.39600
O2303       O  0.63862644  0.85300427  0.39680287    -0.39600
O2304       O  0.64321770  0.87209663  0.35537159    -0.37300
O2305       O  0.60079175  0.76652787  0.36357843    -0.38200
O2306       O  0.58516811  0.78681504  0.35934864    -0.34400
O2307       O  0.68788270  0.83508379  0.27301577    -0.35800
O2308       O  0.67518741  0.85783657  0.26784323    -0.40100
C2309       C  0.76219334  0.91806837  0.99113527    -0.13800
C2310       C  0.78057025  0.93728667  0.97957878     0.16600
C2311       C  0.79332567  0.93498173  0.95625600     0.02900
C2312       C  0.78724616  0.91381417  0.94466217    -0.12300
C2313       C  0.76869541  0.89444453  0.95599687    -0.03300
C2314       C  0.75618525  0.89688424  0.97984006     0.02200
C2315       C  0.78567114  0.95926857  0.99248584     0.09000
N2316       N  0.81311206  0.95374181  0.94501407     0.65400
H2317       H  0.79740054  0.91260802  0.92682016     0.18300
N2318       N  0.73718760  0.87817476  0.99287909     0.75800
H2319       H  0.75224033  0.91953276  0.00907862     0.09800
C2320       C  0.78323262  0.97494141  0.97504174     0.03500
C2321       C  0.78513161  0.99395828  0.98909632    -0.05200
C2322       C  0.78883429  0.99779152  0.02080716    -0.23600
C2323       C  0.79207894  0.98240399  0.03805420     0.12700
C2324       C  0.79050755  0.96348760  0.02380209    -0.12800
N2325       N  0.77673343  0.97090100  0.94364400     0.64400
H2326       H  0.78240958  0.00518904  0.97504702     0.12300
N2327       N  0.79633149  0.98521777  0.07015623     0.61000
H2328       H  0.79235490  0.95156657  0.03756652     0.08400
O2329       O  0.71803716  0.87341123  0.98405458    -0.40400
O2330       O  0.73928012  0.86999380  0.01752974    -0.39600
O2331       O  0.83119806  0.95960272  0.95864755    -0.39600
O2332       O  0.81362673  0.95985026  0.91773260    -0.37300
O2333       O  0.78049877  0.97471764  0.08860783    -0.38200
O2334       O  0.81604058  0.99346000  0.07958977    -0.34400
O2335       O  0.75632753  0.95982530  0.93722553    -0.35800
O2336       O  0.79019237  0.98327775  0.92344074    -0.40100
C2337       C  0.69572473  0.69084971  0.89222420    -0.13800
C2338       C  0.69682903  0.67872744  0.91725985     0.16600
C2339       C  0.70966893  0.69039893  0.94280955     0.02900
C2340       C  0.71944551  0.71347282  0.94407913    -0.12300
C2341       C  0.71720695  0.72563330  0.92004247    -0.03300
C2342       C  0.70606907  0.71418360  0.89320869     0.02200
C2343       C  0.68514448  0.65405130  0.91578605     0.09000
N2344       N  0.71381215  0.67926266  0.96713124     0.65400
H2345       H  0.72876000  0.72197408  0.96440489     0.18300
N2346       N  0.70474372  0.72578740  0.86710730     0.75800
H2347       H  0.68657130  0.68211080  0.87193281     0.09800
C2348       C  0.66731791  0.64047130  0.93550644     0.03500
C2349       C  0.65615429  0.61726838  0.93217404    -0.05200
C2350       C  0.66183135  0.60723198  0.90875005    -0.23600
C2351       C  0.67999523  0.62084987  0.88950469     0.12700
C2352       C  0.69151008  0.64396190  0.89335620    -0.12800
N2353       N  0.65887371  0.64992798  0.95695509     0.64400
H2354       H  0.64187937  0.60717261  0.94652541     0.12300
N2355       N  0.68695888  0.61153149  0.86580051     0.61000
H2356       H  0.70525673  0.65416612  0.87825044     0.08400
O2357       O  0.68681308  0.72545166  0.86135173    -0.40400
O2358       O  0.71931472  0.73167980  0.84648597    -0.39600
O2359       O  0.72979579  0.67565215  0.96455457    -0.39600
O2360       O  0.70629209  0.67915271  0.99342798    -0.37300
O2361       O  0.70323963  0.60868118  0.87061016    -0.38200
O2362       O  0.68107505  0.61188042  0.83862155    -0.34400
O2363       O  0.64439670  0.65455891  0.94815535    -0.35800
O2364       O  0.66083637  0.64760583  0.98517662    -0.40100
C2365       C  0.68314174  0.80038208  0.07825139    -0.13800
C2366       C  0.66419926  0.80149061  0.07029603     0.16600
C2367       C  0.66238806  0.80784868  0.04028231     0.02900
C2368       C  0.67859235  0.81132210  0.01844046    -0.12300
C2369       C  0.69679098  0.80871924  0.02590562    -0.03300
C2370       C  0.69944014  0.80408635  0.05661048     0.02200
C2371       C  0.64629028  0.79422312  0.09355905     0.09000
N2372       N  0.64453626  0.81126506  0.03162786     0.65400
H2373       H  0.67649431  0.81539914  0.99523583     0.18300
N2374       N  0.71854181  0.80311161  0.06637346     0.75800
H2375       H  0.68499209  0.79591969  0.10135981     0.09800
C2376       C  0.62599966  0.77414861  0.09008442     0.03500
C2377       C  0.61228807  0.76432322  0.11547845    -0.05200
C2378       C  0.61840023  0.77383097  0.14475952    -0.23600
C2379       C  0.63768953  0.79494867  0.14768910     0.12700
C2380       C  0.65139265  0.80488072  0.12215925    -0.12800
N2381       N  0.62009115  0.76220578  0.06183732     0.64400
H2382       H  0.59737896  0.74831992  0.11251021     0.12300
N2383       N  0.64478092  0.80561166  0.17674674     0.61000
H2384       H  0.66696218  0.82027182  0.12518854     0.08400
O2385       O  0.71711222  0.78443786  0.06995750    -0.40400
O2386       O  0.73456263  0.82008268  0.07837842    -0.39600
O2387       O  0.64629594  0.82992567  0.03685569    -0.39600
O2388       O  0.63102846  0.79889222  0.01144685    -0.37300
O2389       O  0.65826055  0.80259418  0.19242042    -0.38200
O2390       O  0.64191938  0.82170364  0.18310690    -0.34400
O2391       O  0.62650329  0.74844194  0.05674503    -0.35800
O2392       O  0.60384573  0.76061610  0.04690594    -0.40100
C2393       C  0.66394994  0.81735398  0.85423534    -0.13800
C2394       C  0.66963630  0.83553528  0.83480669     0.16600
C2395       C  0.69196740  0.85275788  0.83366464     0.02900
C2396       C  0.70798031  0.85140850  0.85143440    -0.12300
C2397       C  0.70235731  0.83346266  0.87137029    -0.03300
C2398       C  0.67994059  0.81624582  0.87261123     0.02200
C2399       C  0.65160195  0.83717836  0.81880297     0.09000
N2400       N  0.69848962  0.87260209  0.81660705     0.65400
H2401       H  0.72492900  0.86510274  0.85041229     0.18300
N2402       N  0.67303735  0.79751118  0.89222144     0.75800
H2403       H  0.64680626  0.80409571  0.85562591     0.09800
C2404       C  0.65035292  0.83819391  0.78662648     0.03500
C2405       C  0.63275853  0.83958256  0.77320561    -0.05200
C2406       C  0.61584424  0.83934961  0.79107861    -0.23600
C2407       C  0.61710790  0.83822663  0.82322369     0.12700
C2408       C  0.63491891  0.83733647  0.83664574    -0.12800
N2409       N  0.66572945  0.83617742  0.76709003     0.64400
H2410       H  0.63178475  0.83978813  0.74849468     0.12300
N2411       N  0.60069924  0.83837177  0.84272310     0.61000
H2412       H  0.63568731  0.83667983  0.86134952     0.08400
O2413       O  0.67012088  0.77948157  0.88114233    -0.40400
O2414       O  0.66491655  0.79742231  0.91806338    -0.39600
O2415       O  0.69641789  0.88793705  0.82873764    -0.39600
O2416       O  0.71173667  0.87723587  0.79447460    -0.37300
O2417       O  0.58586531  0.82034635  0.85417260    -0.38200
O2418       O  0.60418293  0.85651666  0.85411924    -0.34400
O2419       O  0.66191402  0.81700185  0.75990152    -0.35800
O2420       O  0.67849576  0.85239063  0.75038516    -0.40100
C2421       C  0.78538079  0.78750298  0.78934010    -0.13800
C2422       C  0.78216580  0.79795349  0.76402310     0.16600
C2423       C  0.77359589  0.81223159  0.76884942     0.02900
C2424       C  0.76876456  0.81608656  0.79851686    -0.12300
C2425       C  0.77231515  0.80602970  0.82418371    -0.03300
C2426       C  0.78058658  0.79136726  0.81918363     0.02200
C2427       C  0.78780072  0.79371055  0.73283163     0.09000
N2428       N  0.77052735  0.82370683  0.74398024     0.65400
H2429       H  0.76234172  0.82731314  0.80133636     0.18300
N2430       N  0.78521513  0.78099422  0.84397252     0.75800
H2431       H  0.79176377  0.77628889  0.78592529     0.09800
C2432       C  0.80959750  0.79896241  0.72540724     0.03500
C2433       C  0.81430302  0.79378447  0.69645701    -0.05200
C2434       C  0.79769389  0.78347924  0.67410907    -0.23600
C2435       C  0.77579631  0.77836661  0.68143115     0.12700
C2436       C  0.77109566  0.78352947  0.71060178    -0.12800
N2437       N  0.82733659  0.81016842  0.74677073     0.64400
H2438       H  0.83124328  0.79808879  0.69136424     0.12300
N2439       N  0.75789704  0.76678411  0.66038034     0.61000
H2440       H  0.75417683  0.77904187  0.71618942     0.08400
O2441       O  0.80515211  0.78849253  0.85188107    -0.40400
O2442       O  0.77084182  0.76148913  0.85157185    -0.39600
O2443       O  0.75110844  0.81764088  0.73485902    -0.39600
O2444       O  0.78623059  0.84261939  0.73649769    -0.37300
O2445       O  0.74619657  0.74590845  0.66211192    -0.38200
O2446       O  0.75052071  0.77741193  0.64591574    -0.34400
O2447       O  0.83492787  0.79943146  0.76045697    -0.35800
O2448       O  0.83844769  0.83111490  0.74662927    -0.40100
C2449       C  0.79990529  0.83307998  0.48020951    -0.13800
C2450       C  0.79404835  0.84515822  0.50005950     0.16600
C2451       C  0.78929905  0.83832957  0.53091151     0.02900
C2452       C  0.78990421  0.81950613  0.54096953    -0.12300
C2453       C  0.79457220  0.80663409  0.52076799    -0.03300
C2454       C  0.80003878  0.81393626  0.49006911     0.02200
C2455       C  0.78937863  0.86223115  0.48705084     0.09000
N2456       N  0.78295745  0.84978923  0.55216303     0.65400
H2457       H  0.78552684  0.81433151  0.56452325     0.18300
N2458       N  0.80494542  0.80174732  0.46815545     0.75800
H2459       H  0.80307063  0.83771392  0.45632008     0.09800
C2460       C  0.80516524  0.88075684  0.47006480     0.03500
C2461       C  0.79908983  0.89523343  0.45630583    -0.05200
C2462       C  0.77742841  0.89167978  0.45916157    -0.23600
C2463       C  0.76160796  0.87283774  0.47574605     0.12700
C2464       C  0.76769330  0.85847226  0.48925230    -0.12800
N2465       N  0.82752850  0.88539678  0.46704349     0.64400
H2466       H  0.81149531  0.90951487  0.44377233     0.12300
N2467       N  0.73890523  0.86730577  0.47794657     0.61000
H2468       H  0.75504984  0.84375561  0.50076367     0.08400
O2469       O  0.82493128  0.80834104  0.46140724    -0.40400
O2470       O  0.78976077  0.78831774  0.45054388    -0.39600
O2471       O  0.76272557  0.84151847  0.55910547    -0.39600
O2472       O  0.79751337  0.86422798  0.56952727    -0.37300
O2473       O  0.72516557  0.85447765  0.45831039    -0.38200
O2474       O  0.73184083  0.87076419  0.50274097    -0.34400
O2475       O  0.83366041  0.88092557  0.44218538    -0.35800
O2476       O  0.84202457  0.89875933  0.48548413    -0.40100
C2477       C  0.68591587  0.72973416  0.56459699    -0.13800
C2478       C  0.67532300  0.71348635  0.58724929     0.16600
C2479       C  0.68826155  0.70741270  0.60539453     0.02900
C2480       C  0.71117409  0.71727831  0.60019758    -0.12300
C2481       C  0.72149760  0.73253786  0.57640341    -0.03300
C2482       C  0.70874539  0.73917481  0.55893817     0.02200
C2483       C  0.65064547  0.70172097  0.58962701     0.09000
N2484       N  0.67817599  0.68964002  0.62694991     0.65400
H2485       H  0.72065294  0.71173309  0.61343613     0.18300
N2486       N  0.71872431  0.75556870  0.53550730     0.75800
H2487       H  0.67626647  0.73469329  0.55065691     0.09800
C2488       C  0.63970643  0.70189603  0.61664550     0.03500
C2489       C  0.61663933  0.68841403  0.61889359    -0.05200
C2490       C  0.60377052  0.67490754  0.59442385    -0.23600
C2491       C  0.61451965  0.67655553  0.56632181     0.12700
C2492       C  0.63777881  0.68962212  0.56433598    -0.12800
N2493       N  0.65155270  0.71626681  0.64160284     0.64400
H2494       H  0.60874795  0.68836535  0.64029493     0.12300
N2495       N  0.60231946  0.66484227  0.53979255     0.61000
H2496       H  0.64590576  0.68990954  0.54305169     0.08400
O2497       O  0.72474427  0.77554185  0.54160100    -0.40400
O2498       O  0.71670464  0.74949282  0.50793839    -0.39600
O2499       O  0.66961963  0.66991269  0.61739037    -0.39600
O2500       O  0.68329936  0.69359802  0.65483684    -0.37300
O2501       O  0.59681152  0.67481637  0.52073684    -0.38200
O2502       O  0.60241076  0.64749317  0.53158409    -0.34400
O2503       O  0.65512663  0.73593277  0.64124337    -0.35800
O2504       O  0.65234084  0.70788268  0.66680166    -0.40100
C2505       C  0.67601800  0.53533976  0.10774953    -0.13800
C2506       C  0.66394982  0.54582183  0.09997811     0.16600
C2507       C  0.66099483  0.55875494  0.12243062     0.02900
C2508       C  0.67011007  0.56095309  0.15182135    -0.12300
C2509       C  0.68244968  0.55067717  0.15947796    -0.03300
C2510       C  0.68529992  0.53768201  0.13691384     0.02200
C2511       C  0.65314876  0.54105066  0.06925093     0.09000
N2512       N  0.64849211  0.56946760  0.11614206     0.65400
H2513       H  0.66788700  0.57117390  0.16856806     0.18300
N2514       N  0.69700160  0.52614265  0.14337553     0.75800
H2515       H  0.67810837  0.52502732  0.09099498     0.09800
C2516       C  0.66031987  0.55697055  0.04555099     0.03500
C2517       C  0.65097381  0.55073098  0.01611773    -0.05200
C2518       C  0.63446246  0.52875646  0.00960164    -0.23600
C2519       C  0.62740965  0.51287372  0.03344035     0.12700
C2520       C  0.63671233  0.51913977  0.06270840    -0.12800
N2521       N  0.67764166  0.57931750  0.05052031     0.64400
H2522       H  0.65664177  0.56320243  0.99829451     0.12300
N2523       N  0.61158545  0.49000128  0.02804864     0.61000
H2524       H  0.63135866  0.50660349  0.08042448     0.08400
O2525       O  0.71644899  0.53372504  0.13318281    -0.40400
O2526       O  0.68624381  0.50618718  0.15209754    -0.39600
O2527       O  0.62830521  0.55991689  0.12381072    -0.39600
O2528       O  0.65873600  0.59019880  0.11194509    -0.37300
O2529       O  0.61838053  0.47664334  0.02214942    -0.38200
O2530       O  0.59163878  0.48246032  0.03598980    -0.34400
O2531       O  0.69752764  0.58416323  0.04648611    -0.35800
O2532       O  0.67297807  0.59466592  0.05039626    -0.40100
C2533       C  0.63611644  0.50953749  0.35708288    -0.13800
C2534       C  0.61683692  0.49845029  0.33922560     0.16600
C2535       C  0.61764121  0.50488863  0.30844219     0.02900
C2536       C  0.63715763  0.52261878  0.29649736    -0.12300
C2537       C  0.65612145  0.53454765  0.31475086    -0.03300
C2538       C  0.65564038  0.52745075  0.34523648     0.02200
C2539       C  0.59547917  0.48233669  0.35406734     0.09000
N2540       N  0.59860416  0.49388660  0.28910380     0.65400
H2541       H  0.63709075  0.52766834  0.27308533     0.18300
N2542       N  0.67471462  0.53826341  0.36458953     0.75800
H2543       H  0.63574763  0.50491441  0.38081377     0.09800
C2544       C  0.59241644  0.46304981  0.36911071     0.03500
C2545       C  0.57228336  0.44904437  0.38413471    -0.05200
C2546       C  0.55488437  0.45378912  0.38431411    -0.23600
C2547       C  0.55823242  0.47339388  0.36981582     0.12700
C2548       C  0.57834374  0.48737827  0.35500847    -0.12800
N2549       N  0.60924666  0.45701949  0.36840801     0.64400
H2550       H  0.57001525  0.43402982  0.39492257     0.12300
N2551       N  0.54174581  0.47988322  0.37095708     0.61000
H2552       H  0.58075683  0.50258384  0.34466901     0.08400
O2553       O  0.68712665  0.52998766  0.36754338    -0.40400
O2554       O  0.67612133  0.55252677  0.38369349    -0.39600
O2555       O  0.58775975  0.50343807  0.28268462    -0.39600
O2556       O  0.59615612  0.47783812  0.27279303    -0.37300
O2557       O  0.54231508  0.49234877  0.39235591    -0.38200
O2558       O  0.53042966  0.47776147  0.34736223    -0.34400
O2559       O  0.62047411  0.45935012  0.39218232    -0.35800
O2560       O  0.60934773  0.44495689  0.34690872    -0.40100
C2561       C  0.76784928  0.64401599  0.40857454    -0.13800
C2562       C  0.78584234  0.66403751  0.39834582     0.16600
C2563       C  0.79350716  0.66560862  0.36816623     0.02900
C2564       C  0.78213960  0.64765357  0.34815176    -0.12300
C2565       C  0.76313095  0.62808905  0.35778486    -0.03300
C2566       C  0.75651672  0.62606046  0.38871151     0.02200
C2567       C  0.79552009  0.68296994  0.41977499     0.09000
N2568       N  0.81272862  0.68522156  0.35750615     0.65400
H2569       H  0.78765839  0.64944589  0.32461507     0.18300
N2570       N  0.73831145  0.60597472  0.40035029     0.75800
H2571       H  0.76219193  0.64252245  0.43201781     0.09800
C2572       C  0.79096628  0.70043598  0.41710914     0.03500
C2573       C  0.79610503  0.71540965  0.44126145    -0.05200
C2574       C  0.80494241  0.71291279  0.46898628    -0.23600
C2575       C  0.81049626  0.69593504  0.47076561     0.12700
C2576       C  0.80590998  0.68136616  0.44615056    -0.12800
N2577       N  0.77891153  0.70180641  0.39158363     0.64400
H2578       H  0.79161988  0.72816981  0.43886640     0.12300
N2579       N  0.81896631  0.69174259  0.49797744     0.61000
H2580       H  0.80921002  0.66776056  0.44843236     0.08400
O2581       O  0.71997697  0.60499630  0.40535281    -0.40400
O2582       O  0.74201540  0.59158933  0.41211530    -0.39600
O2583       O  0.83134764  0.68626933  0.35870930    -0.39600
O2584       O  0.81034789  0.69830307  0.34005457    -0.37300
O2585       O  0.80727371  0.67330664  0.51110140    -0.38200
O2586       O  0.83971716  0.70195109  0.50193134    -0.34400
O2587       O  0.75796321  0.69121222  0.39237272    -0.35800
O2588       O  0.78866573  0.71765448  0.37295911    -0.40100
C2589       C  0.62666362  0.65920140  0.27963057    -0.13800
C2590       C  0.62734902  0.64746062  0.25364697     0.16600
C2591       C  0.61566098  0.64749840  0.22734877     0.02900
C2592       C  0.60491022  0.65996114  0.22684695    -0.12300
C2593       C  0.60570478  0.67318710  0.25183610    -0.03300
C2594       C  0.61623623  0.67216570  0.27886203     0.02200
C2595       C  0.64098530  0.63614662  0.25382709     0.09000
N2596       N  0.61574350  0.63622818  0.20005049     0.65400
H2597       H  0.59666476  0.66004275  0.20587309     0.18300
N2598       N  0.61774776  0.68515394  0.30502585     0.75800
H2599       H  0.63475937  0.65877280  0.30052705     0.09800
C2600       C  0.66340788  0.64757685  0.26345044     0.03500
C2601       C  0.67569527  0.63667268  0.26416712    -0.05200
C2602       C  0.66641979  0.61439386  0.25529585    -0.23600
C2603       C  0.64432500  0.60292713  0.24492914     0.12700
C2604       C  0.63175062  0.61376726  0.24436816    -0.12800
N2605       N  0.67411959  0.67034799  0.27266329     0.64400
H2606       H  0.69265425  0.64563789  0.27247795     0.12300
N2607       N  0.63409751  0.57996054  0.23689649     0.61000
H2608       H  0.61450442  0.60442044  0.23749719     0.08400
O2609       O  0.63545315  0.70323898  0.30989537    -0.40400
O2610       O  0.60368630  0.67641703  0.32624045    -0.39600
O2611       O  0.59837624  0.61855809  0.19246239    -0.39600
O2612       O  0.63070141  0.64651153  0.18034452    -0.37300
O2613       O  0.63560422  0.57457193  0.20982182    -0.38200
O2614       O  0.62739871  0.56546286  0.25769549    -0.34400
O2615       O  0.67803889  0.67509518  0.30066786    -0.35800
O2616       O  0.68457235  0.68528034  0.25300784    -0.40100
C2617       C  0.82405483  0.53084776  0.35237937    -0.13800
C2618       C  0.82703360  0.54089762  0.32360614     0.16600
C2619       C  0.84781189  0.54959373  0.30909610     0.02900
C2620       C  0.86515394  0.54840514  0.32355355    -0.12300
C2621       C  0.86262449  0.53912870  0.35293138    -0.03300
C2622       C  0.84153091  0.52988539  0.36711813     0.02200
C2623       C  0.80942418  0.54490303  0.31122588     0.09000
N2624       N  0.85224420  0.56143466  0.28090329     0.65400
H2625       H  0.88114115  0.55595897  0.31220357     0.18300
N2626       N  0.83744377  0.51945733  0.39637419     0.75800
H2627       H  0.80818431  0.52424264  0.36387919     0.09800
C2628       C  0.79655639  0.53373482  0.28533680     0.03500
C2629       C  0.78063524  0.53878182  0.27432619    -0.05200
C2630       C  0.77705723  0.55486499  0.28862076    -0.23600
C2631       C  0.78986616  0.56576997  0.31502294     0.12700
C2632       C  0.80573040  0.56066601  0.32586464    -0.12800
N2633       N  0.79891092  0.51676254  0.27040376     0.64400
H2634       H  0.77104925  0.52999294  0.25434391     0.12300
N2635       N  0.78729776  0.58225009  0.33114346     0.61000
H2636       H  0.81548757  0.56932776  0.34582292     0.08400
O2637       O  0.82866073  0.49860848  0.39774305    -0.40400
O2638       O  0.83718421  0.52997667  0.41975079    -0.39600
O2639       O  0.86019383  0.58219987  0.28157413    -0.39600
O2640       O  0.85388295  0.55250561  0.25666889    -0.37300
O2641       O  0.77539936  0.57679798  0.35488418    -0.38200
O2642       O  0.80063684  0.60254063  0.32596058    -0.34400
O2643       O  0.78606443  0.49678278  0.27782589    -0.35800
O2644       O  0.80865755  0.52092396  0.24489777    -0.40100
C2645       C  0.19317940  0.73391238  0.19585042    -0.13800
C2646       C  0.17403011  0.73323744  0.18419292     0.16600
C2647       C  0.17184163  0.75224029  0.18699461     0.02900
C2648       C  0.18900164  0.77160793  0.20006299    -0.12300
C2649       C  0.20836463  0.77253197  0.21139171    -0.03300
C2650       C  0.21022814  0.75326109  0.20957049     0.02200
C2651       C  0.15614186  0.71223166  0.17067900     0.09000
N2652       N  0.15180476  0.75183628  0.17850618     0.65400
H2653       H  0.18684446  0.78595341  0.20208981     0.18300
N2654       N  0.22950185  0.75318138  0.22055911     0.75800
H2655       H  0.19491112  0.71930220  0.19421992     0.09800
C2656       C  0.15032324  0.71039376  0.13947430     0.03500
C2657       C  0.13309902  0.69030157  0.12797422    -0.05200
C2658       C  0.12120134  0.67173396  0.14695585    -0.23600
C2659       C  0.12746002  0.67348726  0.17814181     0.12700
C2660       C  0.14481051  0.69357395  0.18953937    -0.12800
N2661       N  0.16194370  0.72857653  0.11890270     0.64400
H2662       H  0.12868847  0.68946827  0.10405827     0.12300
N2663       N  0.11660314  0.65509208  0.19861507     0.61000
H2664       H  0.14928636  0.69470238  0.21347642     0.08400
O2665       O  0.24454541  0.75602068  0.20190867    -0.40400
O2666       O  0.22897980  0.74510981  0.24656797    -0.39600
O2667       O  0.13614252  0.74487676  0.19762669    -0.39600
O2668       O  0.15225173  0.76397685  0.15679097    -0.37300
O2669       O  0.12549506  0.64351388  0.20426681    -0.38200
O2670       O  0.10184233  0.65406012  0.21643891    -0.34400
O2671       O  0.17932543  0.73113604  0.10609564    -0.35800
O2672       O  0.15177237  0.73750705  0.10716166    -0.40100
C2673       C  0.00338242  0.53340260  0.21958652    -0.13800
C2674       C  0.00874105  0.54485193  0.24742275     0.16600
C2675       C  0.02960725  0.56431270  0.25043718     0.02900
C2676       C  0.04307257  0.57346330  0.22466749    -0.12300
C2677       C  0.03616313  0.56367561  0.19562674    -0.03300
C2678       C  0.01669792  0.54267171  0.19371102     0.02200
C2679       C  0.99131391  0.53791273  0.27128210     0.09000
N2680       N  0.03665968  0.57600606  0.27879685     0.65400
H2681       H  0.05838169  0.58919366  0.22710469     0.18300
N2682       N  0.00894477  0.53117485  0.16551661     0.75800
H2683       H  0.98789741  0.51782768  0.21733149     0.09800
C2684       C  0.97049579  0.53574778  0.26420233     0.03500
C2685       C  0.95511661  0.53146736  0.28735039    -0.05200
C2686       C  0.95989756  0.52941831  0.31786715    -0.23600
C2687       C  0.98014726  0.53026414  0.32484278     0.12700
C2688       C  0.99561944  0.53444289  0.30150991    -0.12800
N2689       N  0.96514697  0.53923726  0.23391665     0.64400
H2690       H  0.93957372  0.53060752  0.28144096     0.12300
N2691       N  0.98592195  0.52836752  0.35557686     0.61000
H2692       H  0.01128675  0.53553436  0.30718320     0.08400
O2693       O  0.99367441  0.53245704  0.15183315    -0.40400
O2694       O  0.01077706  0.51421595  0.16135644    -0.39600
O2695       O  0.05077093  0.57418973  0.29475056    -0.39600
O2696       O  0.03318419  0.59186067  0.28394141    -0.37300
O2697       O  0.98321041  0.50998172  0.36476262    -0.38200
O2698       O  0.99831112  0.54576284  0.37059671    -0.34400
O2699       O  0.95154697  0.52272655  0.21826889    -0.35800
O2700       O  0.96944930  0.55844476  0.22609265    -0.40100
C2701       C  0.85795194  0.80275850  0.03905617    -0.13800
C2702       C  0.84090219  0.78580046  0.02178933     0.16600
C2703       C  0.84088340  0.76576357  0.01730395     0.02900
C2704       C  0.85770064  0.76295683  0.03004848    -0.12300
C2705       C  0.87494823  0.77984336  0.04741380    -0.03300
C2706       C  0.87497394  0.80003659  0.05175797     0.02200
C2707       C  0.82361211  0.78945416  0.00781144     0.09000
N2708       N  0.82354602  0.74780742  0.00054361     0.65400
H2709       H  0.85694137  0.74715739  0.02659978     0.18300
N2710       N  0.89246141  0.81824067  0.06792388     0.75800
H2711       H  0.85825323  0.81836401  0.04223559     0.09800
C2712       C  0.80789418  0.79130760  0.02584610     0.03500
C2713       C  0.79118273  0.79377072  0.01188985    -0.05200
C2714       C  0.78956380  0.79436466  0.97982557    -0.23600
C2715       C  0.80620178  0.79370634  0.96187151     0.12700
C2716       C  0.82285767  0.79109222  0.97597656    -0.12800
N2717       N  0.80795593  0.78954609  0.05836352     0.64400
H2718       H  0.77892681  0.79442271  0.02646930     0.12300
N2719       N  0.80618857  0.79493520  0.92932694     0.61000
H2720       H  0.83518764  0.79011522  0.96193455     0.08400
O2721       O  0.88900338  0.82246070  0.09476690    -0.40400
O2722       O  0.90886639  0.83288637  0.05317495    -0.39600
O2723       O  0.82732076  0.74396511  0.97365923    -0.39600
O2724       O  0.80701462  0.73291758  0.01481207    -0.37300
O2725       O  0.81826000  0.81340623  0.91645723    -0.38200
O2726       O  0.79908538  0.77729239  0.91399329    -0.34400
O2727       O  0.81539228  0.80689720  0.07444603    -0.35800
O2728       O  0.79618619  0.77083240  0.07075885    -0.40100
C2729       C  0.05627023  0.87119431  0.96411430    -0.13800
C2730       C  0.05568077  0.85501842  0.98393160     0.16600
C2731       C  0.07530139  0.85415353  0.98833678     0.02900
C2732       C  0.09502885  0.86972468  0.97407700    -0.12300
C2733       C  0.09589018  0.88609296  0.95427488    -0.03300
C2734       C  0.07598165  0.88649885  0.94907935     0.02200
C2735       C  0.03412982  0.83790124  0.99741265     0.09000
N2736       N  0.07520499  0.83649717  0.00515278     0.65400
H2737       H  0.10970423  0.86838781  0.97787900     0.18300
N2738       N  0.07524622  0.90204779  0.92851163     0.75800
H2739       H  0.04119510  0.87172846  0.95990968     0.09800
C2740       C  0.03074572  0.83466752  0.02926926     0.03500
C2741       C  0.01122375  0.81647293  0.04055592    -0.05200
C2742       C  0.99443469  0.80147278  0.02078389    -0.23600
C2743       C  0.99706657  0.80602260  0.98896432     0.12700
C2744       C  0.01686358  0.82386638  0.97770162    -0.12800
N2745       N  0.04649325  0.85012045  0.05056172     0.64400
H2746       H  0.00942665  0.81396296  0.06506615     0.12300
N2747       N  0.97982547  0.79295489  0.96764571     0.61000
H2748       H  0.01892731  0.82651689  0.95322065     0.08400
O2749       O  0.07567176  0.91912684  0.93915456    -0.40400
O2750       O  0.06846746  0.89597524  0.90154017    -0.39600
O2751       O  0.06880939  0.81813257  0.99194114    -0.39600
O2752       O  0.08702673  0.84103574  0.02886250    -0.37300
O2753       O  0.96657567  0.79943325  0.95963861    -0.38200
O2754       O  0.98132699  0.77870430  0.95152733    -0.34400
O2755       O  0.04563581  0.86733971  0.05717992    -0.35800
O2756       O  0.05621974  0.84367109  0.06865960    -0.40100
C2757       C  0.83224300  0.69580568  0.15194472    -0.13800
C2758       C  0.83483661  0.67779579  0.16049665     0.16600
C2759       C  0.85445036  0.67781087  0.15209261     0.02900
C2760       C  0.87104859  0.69573029  0.13572961    -0.12300
C2761       C  0.86865753  0.71393762  0.12788960    -0.03300
C2762       C  0.84895660  0.71383358  0.13583109     0.02200
C2763       C  0.81638855  0.65859406  0.17649239     0.09000
N2764       N  0.85809253  0.66010760  0.16085459     0.65400
H2765       H  0.88612924  0.69565159  0.12971792     0.18300
N2766       N  0.84510433  0.73121647  0.12606353     0.75800
H2767       H  0.81693126  0.69563100  0.15716028     0.09800
C2768       C  0.80778670  0.66112735  0.20442346     0.03500
C2769       C  0.79028782  0.64264566  0.21868381    -0.05200
C2770       C  0.78073333  0.62132910  0.20557699    -0.23600
C2771       C  0.78889642  0.61903165  0.17682748     0.12700
C2772       C  0.80659207  0.63755658  0.16282870    -0.12800
N2773       N  0.81697237  0.68228313  0.21907269     0.64400
H2774       H  0.78436590  0.64510063  0.24043997     0.12300
N2775       N  0.77941620  0.59820406  0.16116906     0.61000
H2776       H  0.81251896  0.63553124  0.14081024     0.08400
O2777       O  0.84694369  0.74572143  0.14503823    -0.40400
O2778       O  0.83535063  0.72928380  0.10096983    -0.39600
O2779       O  0.85686576  0.64640102  0.14092485    -0.39600
O2780       O  0.86743624  0.66127967  0.18605089    -0.37300
O2781       O  0.78945724  0.58731295  0.16149998    -0.38200
O2782       O  0.76456459  0.59364741  0.14134456    -0.34400
O2783       O  0.80646799  0.69270835  0.21818224    -0.35800
O2784       O  0.83217993  0.68773913  0.23859861    -0.40100
C2785       C  0.03069804  0.68295246  0.06027007    -0.13800
C2786       C  0.03129045  0.69557665  0.08591496     0.16600
C2787       C  0.04187683  0.69419599  0.11264195     0.02900
C2788       C  0.05045630  0.67979472  0.11377097    -0.12300
C2789       C  0.04897294  0.66632557  0.08874530    -0.03300
C2790       C  0.03964934  0.66867470  0.06130468     0.02200
C2791       C  0.01918293  0.70842169  0.08532290     0.09000
N2792       N  0.04407817  0.70726325  0.13906642     0.65400
H2793       H  0.05809440  0.67891446  0.13491554     0.18300
N2794       N  0.03805897  0.65597824  0.03478191     0.75800
H2795       H  0.02236657  0.68338878  0.03962236     0.09800
C2796       C  0.02231322  0.72353980  0.06167469     0.03500
C2797       C  0.00884757  0.73323573  0.06012042    -0.05200
C2798       C  0.99208054  0.72844551  0.08178643    -0.23600
C2799       C  0.98961372  0.71420847  0.10630367     0.12700
C2800       C  0.00295206  0.70426672  0.10769990    -0.12800
N2801       N  0.03897279  0.72918349  0.03880522     0.64400
H2802       H  0.01115166  0.74422201  0.04117053     0.12300
N2803       N  0.97245695  0.70812467  0.12849860     0.61000
H2804       H  0.99976578  0.69231270  0.12562016     0.08400
O2805       O  0.05213345  0.66504979  0.01365813    -0.40400
O2806       O  0.02001822  0.63842017  0.02914126    -0.39600
O2807       O  0.03214104  0.69794963  0.16217971    -0.39600
O2808       O  0.06143902  0.72592353  0.14222146    -0.37300
O2809       O  0.97733579  0.71720397  0.15450650    -0.38200
O2810       O  0.95413689  0.69044265  0.12482799    -0.34400
O2811       O  0.03321718  0.72107269  0.01232684    -0.35800
O2812       O  0.05776583  0.74627490  0.04251330    -0.40100
C2813       C  0.85743121  0.55777772  0.60468848    -0.13800
C2814       C  0.86642799  0.54379490  0.60243146     0.16600
C2815       C  0.87195012  0.53654874  0.62944095     0.02900
C2816       C  0.86762823  0.54273799  0.65804434    -0.12300
C2817       C  0.85778085  0.55605944  0.66029227    -0.03300
C2818       C  0.85307385  0.56394612  0.63310481     0.02200
C2819       C  0.87071715  0.53797433  0.57152904     0.09000
N2820       N  0.88119069  0.52227497  0.62826961     0.65400
H2821       H  0.87142919  0.53656528  0.67855762     0.18300
N2822       N  0.84459891  0.57889025  0.63380187     0.75800
H2823       H  0.85399815  0.56422201  0.58413839     0.09800
C2824       C  0.85344716  0.52742859  0.54985810     0.03500
C2825       C  0.85822807  0.52374034  0.52005923    -0.05200
C2826       C  0.88001001  0.53033782  0.51141783    -0.23600
C2827       C  0.89734576  0.54108671  0.53285612     0.12700
C2828       C  0.89259611  0.54487089  0.56265161    -0.12800
N2829       N  0.83086893  0.51975084  0.55804956     0.64400
H2830       H  0.84479157  0.51516251  0.50382877     0.12300
N2831       N  0.91989876  0.54876257  0.52446292     0.61000
H2832       H  0.90609119  0.55360163  0.57874085     0.08400
O2833       O  0.82431430  0.57161247  0.62822024    -0.40400
O2834       O  0.85798886  0.59954126  0.63280644    -0.39600
O2835       O  0.90150164  0.53009681  0.63428962    -0.39600
O2836       O  0.86835240  0.50150739  0.62857189    -0.37300
O2837       O  0.93215928  0.56880926  0.51689133    -0.38200
O2838       O  0.92869790  0.53729670  0.53133502    -0.34400
O2839       O  0.82172200  0.53056848  0.54949347    -0.35800
O2840       O  0.81895019  0.50006540  0.56736199    -0.40100
C2841       C  0.74539475  0.56398407  0.82545400    -0.13800
C2842       C  0.72769805  0.54235781  0.82114672     0.16600
C2843       C  0.73099179  0.52767149  0.80252869     0.02900
C2844       C  0.75172258  0.53482204  0.78867500    -0.12300
C2845       C  0.76952819  0.55657938  0.79287622    -0.03300
C2846       C  0.76604541  0.57119563  0.81161822     0.02200
C2847       C  0.70549177  0.53673333  0.83332957     0.09000
N2848       N  0.71357850  0.50532973  0.79783407     0.65400
H2849       H  0.75388690  0.52316419  0.77471453     0.18300
N2850       N  0.78283071  0.59384681  0.81562046     0.75800
H2851       H  0.74292016  0.57572850  0.83876091     0.09800
C2852       C  0.70198147  0.53836799  0.86476613     0.03500
C2853       C  0.68226508  0.53718116  0.87481610    -0.05200
C2854       C  0.66578617  0.53478788  0.85405131    -0.23600
C2855       C  0.66902097  0.53223618  0.82251661     0.12700
C2856       C  0.68863512  0.53309557  0.81265938    -0.12800
N2857       N  0.71854914  0.54180669  0.88679253     0.64400
H2858       H  0.68036703  0.53915319  0.89901126     0.12300
N2859       N  0.65309957  0.52966016  0.79985781     0.61000
H2860       H  0.69123317  0.53218184  0.78838657     0.08400
O2861       O  0.79295189  0.59987616  0.84083151    -0.40400
O2862       O  0.78336045  0.60828498  0.79765336    -0.39600
O2863       O  0.70387028  0.49983358  0.77229296    -0.39600
O2864       O  0.71172502  0.49039430  0.81595404    -0.37300
O2865       O  0.65577439  0.54651151  0.78537041    -0.38200
O2866       O  0.64010926  0.51056741  0.78925493    -0.34400
O2867       O  0.73034904  0.56086603  0.89828159    -0.35800
O2868       O  0.71762905  0.52520747  0.89985941    -0.40100
C2869       C  0.84415605  0.66412125  0.69636706    -0.13800
C2870       C  0.82544903  0.65887744  0.67835670     0.16600
C2871       C  0.80863779  0.63641363  0.67558255     0.02900
C2872       C  0.81054060  0.61994535  0.69115210    -0.12300
C2873       C  0.82897641  0.62513959  0.70972490    -0.03300
C2874       C  0.84606581  0.64757348  0.71203062     0.02200
C2875       C  0.82444313  0.67677402  0.66109662     0.09000
N2876       N  0.78921818  0.62995358  0.65754714     0.65400
H2877       H  0.79714958  0.60291196  0.68899110     0.18300
N2878       N  0.86590348  0.65380615  0.72892572     0.75800
H2879       H  0.85770459  0.68111755  0.69764053     0.09800
C2880       C  0.82762374  0.69634326  0.67541176     0.03500
C2881       C  0.82743849  0.71310655  0.65796450    -0.05200
C2882       C  0.82408333  0.71099229  0.62609609    -0.23600
C2883       C  0.82065194  0.69126354  0.61204934     0.12700
C2884       C  0.82117818  0.67463400  0.62939795    -0.12800
N2885       N  0.83086269  0.69946348  0.70768514     0.64400
H2886       H  0.82998633  0.72795488  0.66964491     0.12300
N2887       N  0.81748360  0.68802563  0.58000177     0.61000
H2888       H  0.81953427  0.66013361  0.61775700     0.08400
O2889       O  0.86860867  0.66314894  0.75453353    -0.40400
O2890       O  0.88251463  0.65512462  0.71531390    -0.39600
O2891       O  0.78724543  0.62039883  0.63223429    -0.39600
O2892       O  0.77213145  0.62822671  0.67022543    -0.37300
O2893       O  0.83374359  0.69108930  0.56371940    -0.38200
O2894       O  0.79799562  0.67595629  0.57007744    -0.34400
O2895       O  0.84999888  0.71277562  0.71785980    -0.35800
O2896       O  0.81423276  0.69368884  0.72475534    -0.40100
C2897       C  0.84978263  0.65991109  0.88180406    -0.13800
C2898       C  0.85845306  0.65793172  0.90967904     0.16600
C2899       C  0.86219714  0.64002627  0.91424146     0.02900
C2900       C  0.85908427  0.62567506  0.89015963    -0.12300
C2901       C  0.85273154  0.62900218  0.86109079    -0.03300
C2902       C  0.84696828  0.64572958  0.85740298     0.02200
C2903       C  0.86587506  0.67582186  0.93256064     0.09000
N2904       N  0.87106043  0.63729409  0.94230418     0.65400
H2905       H  0.86298969  0.61261054  0.89394148     0.18300
N2906       N  0.84007241  0.64995929  0.82869994     0.75800
H2907       H  0.84637116  0.67334930  0.87840791     0.09800
C2908       C  0.88272085  0.69762340  0.92545563     0.03500
C2909       C  0.89314790  0.71293323  0.94893873    -0.05200
C2910       C  0.88702607  0.70694458  0.97947172    -0.23600
C2911       C  0.86863083  0.68588571  0.98624635     0.12700
C2912       C  0.85817991  0.67053048  0.96268527    -0.12800
N2913       N  0.89073026  0.70395486  0.89491580     0.64400
H2914       H  0.90697402  0.72921594  0.94339543     0.12300
N2915       N  0.86183727  0.67896757  0.01702913     0.61000
H2916       H  0.84492435  0.65393663  0.96819352     0.08400
O2917       O  0.85454488  0.66478803  0.81174593    -0.40400
O2918       O  0.82011094  0.64506334  0.82558242    -0.39600
O2919       O  0.85850267  0.62196032  0.96036094    -0.39600
O2920       O  0.89183236  0.64632910  0.94539227    -0.37300
O2921       O  0.84505700  0.67922653  0.02746396    -0.38200
O2922       O  0.86893220  0.66776995  0.03065552    -0.34400
O2923       O  0.88494801  0.71566015  0.87979056    -0.35800
O2924       O  0.90709084  0.70230835  0.88596163    -0.40100
C2925       C  0.97174384  0.79684567  0.22914020    -0.13800
C2926       C  0.99054200  0.79463016  0.23257991     0.16600
C2927       C  0.99844227  0.78805792  0.20724554     0.02900
C2928       C  0.98732220  0.78363918  0.17919554    -0.12300
C2929       C  0.96820191  0.78545372  0.17574503    -0.03300
C2930       C  0.96058135  0.79242123  0.20117455     0.02200
C2931       C  0.00093809  0.79861889  0.26319135     0.09000
N2932       N  0.01701241  0.78468923  0.20985456     0.65400
H2933       H  0.99339778  0.77811701  0.16024479     0.18300
N2934       N  0.94188442  0.79562984  0.19902626     0.75800
H2935       H  0.96566378  0.80208191  0.24842095     0.09800
C2936       C  0.02229642  0.81664524  0.26896267     0.03500
C2937       C  0.03092701  0.82041210  0.29858715    -0.05200
C2938       C  0.01848024  0.80697184  0.32334189    -0.23600
C2939       C  0.99675317  0.78919292  0.31751254     0.12700
C2940       C  0.98837230  0.78511358  0.28760859    -0.12800
N2941       N  0.03484969  0.83229710  0.24559363     0.64400
H2942       H  0.04739569  0.83451088  0.30219577     0.12300
N2943       N  0.98243174  0.77580253  0.34155687     0.61000
H2944       H  0.97166875  0.77152897  0.28349620     0.08400
O2945       O  0.94511463  0.81496522  0.19472896    -0.40400
O2946       O  0.92327273  0.78073572  0.20889162    -0.39600
O2947       O  0.01365133  0.76574509  0.21739312    -0.39600
O2948       O  0.03488264  0.79792758  0.19642903    -0.37300
O2949       O  0.96646664  0.77850298  0.34925534    -0.38200
O2950       O  0.98170958  0.75781630  0.34826190    -0.34400
O2951       O  0.03084700  0.84771443  0.23977120    -0.35800
O2952       O  0.05325821  0.83447358  0.23755957    -0.40100
C2953       C  0.11916418  0.93409630  0.47054276    -0.13800
C2954       C  0.13893956  0.93638207  0.48236300     0.16600
C2955       C  0.14272783  0.91835334  0.48066652     0.02900
C2956       C  0.12697513  0.89852481  0.46702420    -0.12300
C2957       C  0.10712353  0.89603136  0.45502359    -0.03300
C2958       C  0.10313643  0.91402468  0.45716480     0.02200
C2959       C  0.15540566  0.95740385  0.49706249     0.09000
N2960       N  0.16274091  0.92007072  0.49220521     0.65400
H2961       H  0.13046328  0.88500535  0.46557529     0.18300
N2962       N  0.08242309  0.91176464  0.44789604     0.75800
H2963       H  0.11594304  0.94777052  0.47239127     0.09800
C2964       C  0.16808103  0.97678541  0.47980808     0.03500
C2965       C  0.18530107  0.99563844  0.49374411    -0.05200
C2966       C  0.19031309  0.99564103  0.52489359    -0.23600
C2967       C  0.17651620  0.97658056  0.54262123     0.12700
C2968       C  0.15933912  0.95767866  0.52851120    -0.12800
N2969       N  0.16465455  0.97713696  0.44767851     0.64400
H2970       H  0.19538238  0.01007972  0.47968088     0.12300
N2971       N  0.18028577  0.97560612  0.57453883     0.61000
H2972       H  0.14938759  0.94288472  0.54202999     0.08400
O2973       O  0.08147849  0.92092460  0.42351526    -0.40400
O2974       O  0.06700416  0.90563273  0.46728191    -0.39600
O2975       O  0.16247277  0.91145782  0.51768750    -0.39600
O2976       O  0.17893635  0.92561850  0.47435793    -0.37300
O2977       O  0.16925976  0.97978598  0.59363052    -0.38200
O2978       O  0.19023706  0.96563248  0.58334217    -0.34400
O2979       O  0.15513148  0.98724688  0.43770872    -0.35800
O2980       O  0.17542232  0.97200765  0.42942501    -0.40100
C2981       C  0.94985047  0.78891927  0.47540955    -0.13800
C2982       C  0.95184029  0.79904519  0.50390927     0.16600
C2983       C  0.97290659  0.80981600  0.51820230     0.02900
C2984       C  0.99092018  0.80912554  0.50482773    -0.12300
C2985       C  0.98871327  0.79832780  0.47679049    -0.03300
C2986       C  0.96797123  0.78869500  0.46167848     0.02200
C2987       C  0.93125737  0.79543584  0.51991997     0.09000
N2988       N  0.97636991  0.82164382  0.54626461     0.65400
H2989       H  0.00675675  0.81703394  0.51659430     0.18300
N2990       N  0.96455982  0.77759574  0.43305439     0.75800
H2991       H  0.93380632  0.78005062  0.46432067     0.09800
C2992       C  0.91526901  0.79925813  0.50547421     0.03500
C2993       C  0.89479321  0.79257548  0.51972306    -0.05200
C2994       C  0.88978407  0.78227500  0.54843293    -0.23600
C2995       C  0.90576387  0.77875126  0.56317841     0.12700
C2996       C  0.92619184  0.78525100  0.54885636    -0.12800
N2997       N  0.91950964  0.80999876  0.47641626     0.64400
H2998       H  0.88266749  0.79545454  0.50821855     0.12300
N2999       N  0.90086779  0.76700801  0.59149424     0.61000
H3000       H  0.93770236  0.78124728  0.55980500     0.08400
O3001       O  0.96281566  0.78685668  0.40930586    -0.40400
O3002       O  0.95752544  0.75698156  0.43267869    -0.39600
O3003       O  0.97937803  0.81374113  0.57055583    -0.39600
O3004       O  0.98199976  0.84192950  0.54538957    -0.37300
O3005       O  0.89242887  0.74617165  0.59111370    -0.38200
O3006       O  0.90979415  0.77756122  0.61574234    -0.34400
O3007       O  0.90961795  0.79863765  0.45309496    -0.35800
O3008       O  0.92779799  0.83080226  0.47554184    -0.40100
C3009       C  0.14773741  0.83097261  0.36717000    -0.13800
C3010       C  0.14947631  0.83579590  0.33593520     0.16600
C3011       C  0.13365399  0.84009285  0.32231936     0.02900
C3012       C  0.11695544  0.84018860  0.34028548    -0.12300
C3013       C  0.11525566  0.83554738  0.37181972    -0.03300
C3014       C  0.13083990  0.83066059  0.38497869     0.02200
C3015       C  0.16738430  0.83520876  0.31813690     0.09000
N3016       N  0.13347376  0.84310874  0.29006551     0.65400
H3017       H  0.10495703  0.84347887  0.32925999     0.18300
N3018       N  0.13069756  0.82660238  0.41678711     0.75800
H3019       H  0.15971253  0.82750344  0.37791744     0.09800
C3020       C  0.18555251  0.85461168  0.30603485     0.03500
C3021       C  0.20243812  0.85329568  0.29025687    -0.05200
C3022       C  0.20217062  0.83305624  0.28750596    -0.23600
C3023       C  0.18424206  0.81372685  0.30043145     0.12700
C3024       C  0.16701178  0.81495039  0.31523360    -0.12800
N3025       N  0.18810428  0.87598409  0.31181069     0.64400
H3026       H  0.21638004  0.86838477  0.28135040     0.12300
N3027       N  0.18304392  0.79263741  0.29836853     0.61000
H3028       H  0.15333280  0.79998811  0.32488584     0.08400
O3029       O  0.14519521  0.84183916  0.43326898    -0.40400
O3030       O  0.12127882  0.80676805  0.42605780    -0.39600
O3031       O  0.12195409  0.82637793  0.27340167    -0.39600
O3032       O  0.13946926  0.86221625  0.27972084    -0.37300
O3033       O  0.18841812  0.78529359  0.32121498    -0.38200
O3034       O  0.17195122  0.77948156  0.27707094    -0.34400
O3035       O  0.19777380  0.88614522  0.33598142    -0.35800
O3036       O  0.18626118  0.88677373  0.28997194    -0.40100
C3037       C  0.97882346  0.69240901  0.39565294    -0.13800
C3038       C  0.96284014  0.68131910  0.41864641     0.16600
C3039       C  0.96097280  0.69396189  0.44245908     0.02900
C3040       C  0.97543317  0.71690518  0.44359072    -0.12300
C3041       C  0.99208944  0.72788144  0.42148439    -0.03300
C3042       C  0.99330516  0.71550530  0.39673738     0.02200
C3043       C  0.94990806  0.65654853  0.41887209     0.09000
N3044       N  0.94473856  0.68377562  0.46605158     0.65400
H3045       H  0.97400120  0.72616321  0.46256140     0.18300
N3046       N  0.01019601  0.72568397  0.37396151     0.75800
H3047       H  0.98089211  0.68295180  0.37756349     0.09800
C3048       C  0.93761453  0.64435387  0.39320233     0.03500
C3049       C  0.92840626  0.62129293  0.39246702    -0.05200
C3050       C  0.93138078  0.60971692  0.41667845    -0.23600
C3051       C  0.94259011  0.62173455  0.44315065     0.12700
C3052       C  0.95175242  0.64492864  0.44396357    -0.12800
N3053       N  0.93493211  0.65516819  0.36715246     0.64400
H3054       H  0.91957502  0.61244579  0.37203538     0.12300
N3055       N  0.94632459  0.61110006  0.46846188     0.61000
H3056       H  0.96152572  0.65403105  0.46364785     0.08400
O3057       O  0.02809504  0.72542997  0.37708546    -0.40400
O3058       O  0.00525629  0.72996575  0.34808701    -0.39600
O3059       O  0.95079918  0.68110514  0.49212290    -0.39600
O3060       O  0.92641767  0.68323195  0.46341829    -0.37300
O3061       O  0.96393977  0.61011494  0.46934050    -0.38200
O3062       O  0.93558299  0.60850002  0.49283510    -0.34400
O3063       O  0.94568017  0.65688739  0.34306571    -0.35800
O3064       O  0.91825478  0.65774804  0.36571323    -0.40100
C3065       C  0.10645009  0.66294151  0.87684384    -0.13800
C3066       C  0.12128609  0.67395306  0.90100228     0.16600
C3067       C  0.14157838  0.69326655  0.89446285     0.02900
C3068       C  0.14638972  0.70161827  0.86463667    -0.12300
C3069       C  0.13156302  0.69097674  0.84021186    -0.03300
C3070       C  0.11150426  0.67103265  0.84659005     0.02200
C3071       C  0.11640897  0.66418706  0.93235615     0.09000
N3072       N  0.15758476  0.70472224  0.91794413     0.65400
H3073       H  0.16206720  0.71670942  0.86071738     0.18300
N3074       N  0.09619045  0.65860498  0.82283330     0.75800
H3075       H  0.09106505  0.64767535  0.88138594     0.09800
C3076       C  0.10032391  0.66468973  0.95152331     0.03500
C3077       C  0.09655660  0.65548930  0.98107311    -0.05200
C3078       C  0.10800741  0.64496469  0.99169592    -0.23600
C3079       C  0.12392188  0.64425771  0.97224249     0.12700
C3080       C  0.12818081  0.65410420  0.94318535    -0.12800
N3081       N  0.08740247  0.67413004  0.94116072     0.64400
H3082       H  0.08399333  0.65580871  0.99533731     0.12300
N3083       N  0.13608049  0.63374468  0.98167277     0.61000
H3084       H  0.14053852  0.65352972  0.92871321     0.08400
O3085       O  0.07839382  0.65912763  0.82041932    -0.40400
O3086       O  0.09777646  0.64328426  0.80972100    -0.39600
O3087       O  0.17431972  0.70225868  0.91988123    -0.39600
O3088       O  0.15786024  0.72095825  0.93126819    -0.37300
O3089       O  0.13002662  0.61434377  0.97238786    -0.38200
O3090       O  0.15536109  0.64546650  0.99247786    -0.34400
O3091       O  0.06822980  0.66152466  0.93053846    -0.35800
O3092       O  0.09279207  0.69363150  0.94913782    -0.40100
C3093       C  0.28962033  0.83249799  0.64111369    -0.13800
C3094       C  0.28409454  0.83406778  0.67154261     0.16600
C3095       C  0.29841891  0.85297241  0.68874824     0.02900
C3096       C  0.31757443  0.87012196  0.67533229    -0.12300
C3097       C  0.32291415  0.86918636  0.64448969    -0.03300
C3098       C  0.30886507  0.84977835  0.62749350     0.02200
C3099       C  0.26290556  0.81642821  0.68482492     0.09000
N3100       N  0.29294963  0.85572213  0.71931808     0.65400
H3101       H  0.32777126  0.88476717  0.68901042     0.18300
N3102       N  0.31389748  0.84716831  0.59662278     0.75800
H3103       H  0.27880075  0.81786310  0.62777846     0.09800
C3104       C  0.24247233  0.81361536  0.67484495     0.03500
C3105       C  0.22276377  0.79790800  0.68889904    -0.05200
C3106       C  0.22265085  0.78446737  0.71311686    -0.23600
C3107       C  0.24324970  0.78676855  0.72231874     0.12700
C3108       C  0.26309641  0.80283388  0.70836746    -0.12800
N3109       N  0.24150486  0.82729531  0.65126056     0.64400
H3110       H  0.20743131  0.79662452  0.68089909     0.12300
N3111       N  0.24445360  0.77285040  0.74531148     0.61000
H3112       H  0.27877159  0.80469862  0.71593459     0.08400
O3113       O  0.30349013  0.84993574  0.57506263    -0.40400
O3114       O  0.32465599  0.83733595  0.59139365    -0.39600
O3115       O  0.30328275  0.85339324  0.74136725    -0.39600
O3116       O  0.28171293  0.86515026  0.72377922    -0.37300
O3117       O  0.24481029  0.75558799  0.73732987    -0.38200
O3118       O  0.25066134  0.78047888  0.77191576    -0.34400
O3119       O  0.23530948  0.81934773  0.62479341    -0.35800
O3120       O  0.24200664  0.84512786  0.65837373    -0.40100
C3121       C  0.01801661  0.63974714  0.71718743    -0.13800
C3122       C  0.00813770  0.63963131  0.74511163     0.16600
C3123       C  0.02193229  0.65061373  0.77048815     0.02900
C3124       C  0.04495704  0.66363200  0.76653797    -0.12300
C3125       C  0.05465733  0.66542922  0.73782790    -0.03300
C3126       C  0.04103151  0.65217878  0.71342578     0.02200
C3127       C  0.98353572  0.62839714  0.74699712     0.09000
N3128       N  0.01284714  0.64949890  0.80015731     0.65400
H3129       H  0.05508993  0.67326338  0.78568084     0.18300
N3130       N  0.05025457  0.65096397  0.68473637     0.75800
H3131       H  0.00775740  0.63024531  0.69804242     0.09800
C3132       C  0.97112541  0.63402846  0.72698710     0.03500
C3133       C  0.94805054  0.62398314  0.73043491    -0.05200
C3134       C  0.93709174  0.60861865  0.75385417    -0.23600
C3135       C  0.94929811  0.60209305  0.77270501     0.12700
C3136       C  0.97227076  0.61184633  0.76896521    -0.12800
N3137       N  0.98183560  0.65095822  0.70437240     0.64400
H3138       H  0.93890654  0.62930530  0.71604927     0.12300
N3139       N  0.93856587  0.58556923  0.79582143     0.61000
H3140       H  0.98137483  0.60661778  0.78355801     0.08400
O3141       O  0.04811057  0.66065373  0.66172412    -0.40400
O3142       O  0.05557986  0.63624896  0.68086360    -0.39600
O3143       O  0.01380274  0.63682137  0.81995872    -0.39600
O3144       O  0.00920940  0.66472786  0.80863959    -0.37300
O3145       O  0.94029799  0.59142138  0.82346628    -0.38200
O3146       O  0.93189654  0.56549576  0.78946055    -0.34400
O3147       O  0.98037999  0.64554785  0.67656193    -0.35800
O3148       O  0.98823107  0.67088334  0.71131516    -0.40100
C3149       C  0.12982187  0.80351537  0.62852860    -0.13800
C3150       C  0.12580660  0.79531972  0.59853794     0.16600
C3151       C  0.12954731  0.77779588  0.59074656     0.02900
C3152       C  0.13555600  0.76772293  0.61337874    -0.12300
C3153       C  0.13774923  0.77459297  0.64398510    -0.03300
C3154       C  0.13577589  0.79334040  0.65132638     0.02200
C3155       C  0.11633878  0.80402836  0.57594008     0.09000
N3156       N  0.12548139  0.76876992  0.56050497     0.65400
H3157       H  0.13725970  0.75355153  0.60718070     0.18300
N3158       N  0.13792397  0.80115520  0.68204249     0.75800
H3159       H  0.12742208  0.81729271  0.63452742     0.09800
C3160       C  0.09523513  0.80169207  0.58019556     0.03500
C3161       C  0.08504427  0.80638224  0.55615290    -0.05200
C3162       C  0.09544113  0.81338560  0.52748169    -0.23600
C3163       C  0.11762224  0.81793420  0.52455890     0.12700
C3164       C  0.12769795  0.81304733  0.54865614    -0.12800
N3165       N  0.08317540  0.79293563  0.60796168     0.64400
H3166       H  0.06831668  0.80331571  0.55961681     0.12300
N3167       N  0.13017559  0.82685604  0.49733392     0.61000
H3168       H  0.14432156  0.81567932  0.54570172     0.08400
O3169       O  0.12063452  0.79570616  0.69753199    -0.40400
O3170       O  0.15613269  0.81747955  0.69057514    -0.39600
O3171       O  0.14168413  0.77228957  0.54372145    -0.39600
O3172       O  0.10620321  0.75361448  0.55332378    -0.37300
O3173       O  0.13954448  0.84757853  0.49330092    -0.38200
O3174       O  0.13814067  0.81614083  0.48442804    -0.34400
O3175       O  0.08173969  0.80591968  0.62678950    -0.35800
O3176       O  0.07015095  0.77228308  0.61035254    -0.40100
C3177       C  0.17741495  0.86011180  0.85753563    -0.13800
C3178       C  0.15866429  0.84546558  0.84030377     0.16600
C3179       C  0.14001387  0.84840907  0.84054103     0.02900
C3180       C  0.14067096  0.86601590  0.85707504    -0.12300
C3181       C  0.15937242  0.88069499  0.87443018    -0.03300
C3182       C  0.17790087  0.87749611  0.87461414     0.02200
C3183       C  0.15860047  0.82658557  0.82391261     0.09000
N3184       N  0.11967220  0.83280490  0.82607058     0.65400
H3185       H  0.12601753  0.86772283  0.85712548     0.18300
N3186       N  0.19756070  0.89199585  0.89130267     0.75800
H3187       H  0.19182110  0.85798991  0.85779049     0.09800
C3188       C  0.15630773  0.82398298  0.79184080     0.03500
C3189       C  0.15630922  0.80583738  0.77771418    -0.05200
C3190       C  0.15955165  0.79051512  0.79463682    -0.23600
C3191       C  0.16245833  0.79352877  0.82665706     0.12700
C3192       C  0.16166750  0.81122147  0.84088846    -0.12800
N3193       N  0.15588784  0.84052612  0.77296128     0.64400
H3194       H  0.15479824  0.80433905  0.75305706     0.12300
N3195       N  0.16606644  0.77874657  0.84522561     0.61000
H3196       H  0.16364589  0.81308199  0.86548248     0.08400
O3197       O  0.21358015  0.90789104  0.87756933    -0.40400
O3198       O  0.20093417  0.88579396  0.91682065    -0.39600
O3199       O  0.10601602  0.81577203  0.84075796    -0.39600
O3200       O  0.11280020  0.83903347  0.80359947    -0.37300
O3201       O  0.18556612  0.78440318  0.85351225    -0.38200
O3202       O  0.14983739  0.76303347  0.85890716    -0.34400
O3203       O  0.17402790  0.85763807  0.76619035    -0.35800
O3204       O  0.13903084  0.83533565  0.75664150    -0.40100
C3205       C  0.30317084  0.46400759  0.19222763    -0.13800
C3206       C  0.28809388  0.46458939  0.17160706     0.16600
C3207       C  0.29328596  0.46714120  0.14019183     0.02900
C3208       C  0.31233665  0.46713389  0.12975114    -0.12300
C3209       C  0.32693633  0.46522566  0.15013858    -0.03300
C3210       C  0.32259640  0.46465541  0.18197241     0.02200
C3211       C  0.26649152  0.46100198  0.18334426     0.09000
N3212       N  0.27986323  0.47059374  0.11868895     0.65400
H3213       H  0.31554685  0.46846110  0.10538275     0.18300
N3214       N  0.33769375  0.46494710  0.20435397     0.75800
H3215       H  0.29963002  0.46262795  0.21652241     0.09800
C3216       C  0.24661757  0.44116615  0.17696255     0.03500
C3217       C  0.22670333  0.43728555  0.19012976    -0.05200
C3218       C  0.22587064  0.45252223  0.21054941    -0.23600
C3219       C  0.24589683  0.47248452  0.21700835     0.12700
C3220       C  0.26590512  0.47651892  0.20333267    -0.12800
N3221       N  0.24655381  0.42388140  0.15917811     0.64400
H3222       H  0.21187002  0.42161958  0.18507944     0.12300
N3223       N  0.24639314  0.48876397  0.23745018     0.61000
H3224       H  0.28115910  0.49170193  0.20874883     0.08400
O3225       O  0.33302808  0.44725769  0.21828637    -0.40400
O3226       O  0.35220141  0.48332926  0.21539284    -0.39600
O3227       O  0.28370730  0.49012220  0.11416481    -0.39600
O3228       O  0.26900712  0.45584642  0.09894168    -0.37300
O3229       O  0.25203811  0.48900422  0.26491959    -0.38200
O3230       O  0.24638043  0.50557854  0.22668238    -0.34400
O3231       O  0.24978173  0.40965919  0.17248660    -0.35800
O3232       O  0.23722642  0.41923338  0.13335513    -0.40100
C3233       C  0.13054170  0.50591833  0.18570114    -0.13800
C3234       C  0.11646180  0.50207312  0.16063329     0.16600
C3235       C  0.10507171  0.48066722  0.14763282     0.02900
C3236       C  0.10793750  0.46365406  0.15963228    -0.12300
C3237       C  0.12174255  0.46727016  0.18500590    -0.03300
C3238       C  0.13320093  0.48874393  0.19803045     0.02200
C3239       C  0.11409408  0.52054894  0.14779684     0.09000
N3240       N  0.08963221  0.47562541  0.12320088     0.65400
H3241       H  0.09856786  0.44722248  0.14963544     0.18300
N3242       N  0.14820705  0.49362981  0.22295137     0.75800
H3243       H  0.13968662  0.52240424  0.19556654     0.09800
C3244       C  0.10494892  0.53108603  0.16511653     0.03500
C3245       C  0.10158493  0.54740852  0.15169550    -0.05200
C3246       C  0.10744191  0.55391564  0.12106993    -0.23600
C3247       C  0.11789070  0.54424568  0.10427372     0.12700
C3248       C  0.12085495  0.52755948  0.11764381    -0.12800
N3249       N  0.09811484  0.52477804  0.19603950     0.64400
H3250       H  0.09390406  0.55474851  0.16534535     0.12300
N3251       N  0.12510796  0.55064924  0.07348163     0.61000
H3252       H  0.12839260  0.51992103  0.10431769     0.08400
O3253       O  0.14228112  0.49544062  0.24956536    -0.40400
O3254       O  0.16851439  0.50093891  0.21747794    -0.39600
O3255       O  0.09475216  0.47274812  0.09658929    -0.39600
O3256       O  0.06957249  0.46910938  0.12938230    -0.37300
O3257       O  0.14513584  0.56500462  0.06848545    -0.38200
O3258       O  0.11337986  0.53840823  0.05181375    -0.34400
O3259       O  0.11025184  0.53699089  0.21744925    -0.35800
O3260       O  0.07815284  0.51050085  0.20155931    -0.40100
C3261       C  0.18189742  0.36897393  0.32989839    -0.13800
C3262       C  0.16402574  0.34737371  0.32551009     0.16600
C3263       C  0.14708006  0.34413958  0.30475563     0.02900
C3264       C  0.14865989  0.36225562  0.28850103    -0.12300
C3265       C  0.16639832  0.38394568  0.29316927    -0.03300
C3266       C  0.18313212  0.38717393  0.31439542     0.02200
C3267       C  0.16351549  0.32894426  0.34360791     0.09000
N3268       N  0.12733877  0.32302829  0.30148637     0.65400
H3269       H  0.13534921  0.35937691  0.27296363     0.18300
N3270       N  0.20164566  0.40872899  0.32045625     0.75800
H3271       H  0.19503612  0.37179052  0.34573657     0.09800
C3272       C  0.16281403  0.31030917  0.32962722     0.03500
C3273       C  0.16337918  0.29399853  0.34765175    -0.05200
C3274       C  0.16530207  0.29587066  0.37966841    -0.23600
C3275       C  0.16668943  0.31486549  0.39366724     0.12700
C3276       C  0.16548396  0.33094483  0.37562828    -0.12800
N3277       N  0.16300646  0.30824035  0.29713818     0.64400
H3278       H  0.16282253  0.27987840  0.33624772     0.12300
N3279       N  0.16905560  0.31810989  0.42600936     0.61000
H3280       H  0.16635248  0.34530074  0.38673651     0.08400
O3281       O  0.22006578  0.41444732  0.30787982    -0.40400
O3282       O  0.20102576  0.41949564  0.34331739    -0.39600
O3283       O  0.11219368  0.31721723  0.32122882    -0.39600
O3284       O  0.12242246  0.31390945  0.27549717    -0.37300
O3285       O  0.18831806  0.32859585  0.43727181    -0.38200
O3286       O  0.15295533  0.31647442  0.44136335    -0.34400
O3287       O  0.18135947  0.31826773  0.28328184    -0.35800
O3288       O  0.14685522  0.29186217  0.28429612    -0.40100
C3289       C  0.12058744  0.20675521  0.99590632    -0.13800
C3290       C  0.14014709  0.21257854  0.97958835     0.16600
C3291       C  0.14216668  0.22047352  0.94932414     0.02900
C3292       C  0.12521529  0.22319313  0.93648554    -0.12300
C3293       C  0.10623684  0.21845798  0.95339290    -0.03300
C3294       C  0.10374701  0.20970363  0.98315287     0.02200
C3295       C  0.15818426  0.21026814  0.99440197     0.09000
N3296       N  0.16194967  0.22720691  0.93202082     0.65400
H3297       H  0.12747186  0.23022280  0.91376948     0.18300
N3298       N  0.08396627  0.20318960  0.00038096     0.75800
H3299       H  0.11840436  0.19994545  0.01874107     0.09800
C3300       C  0.16765792  0.22080011  0.02247844     0.03500
C3301       C  0.18483081  0.21861525  0.03558429    -0.05200
C3302       C  0.19336203  0.20651652  0.02093248    -0.23600
C3303       C  0.18346701  0.19543245  0.99325063     0.12700
C3304       C  0.16593893  0.19724472  0.98045908    -0.12800
N3305       N  0.16118091  0.23512615  0.03688956     0.64400
H3306       H  0.19241676  0.22757015  0.05652237     0.12300
N3307       N  0.19068045  0.18193739  0.97809830     0.61000
H3308       H  0.15839249  0.18847595  0.95940938     0.08400
O3309       O  0.08426960  0.21532268  0.02206106    -0.40400
O3310       O  0.06814828  0.18341627  0.99852852    -0.39600
O3311       O  0.16165275  0.21528866  0.91004750    -0.39600
O3312       O  0.17780577  0.24692798  0.93426899    -0.37300
O3313       O  0.18122354  0.16147007  0.98417290    -0.38200
O3314       O  0.20210832  0.18902780  0.95401562    -0.34400
O3315       O  0.15015950  0.22904867  0.06140828    -0.35800
O3316       O  0.17067499  0.25532475  0.02927380    -0.40100
C3317       C  0.95037591  0.16978755  0.97226978    -0.13800
C3318       C  0.94907548  0.16530979  0.00364589     0.16600
C3319       C  0.96820728  0.17708288  0.02178750     0.02900
C3320       C  0.98760365  0.19434733  0.00896695    -0.12300
C3321       C  0.98856634  0.20010457  0.97795046    -0.03300
C3322       C  0.96995067  0.18674607  0.95919904     0.02200
C3323       C  0.92752664  0.14869711  0.01711651     0.09000
N3324       N  0.96789681  0.17251949  0.05365874     0.65400
H3325       H  0.00174852  0.20381735  0.02380483     0.18300
N3326       N  0.97022286  0.19049841  0.92710715     0.75800
H3327       H  0.93596292  0.16024900  0.95788329     0.09800
C3328       C  0.90893369  0.15165879  0.01583258     0.03500
C3329       C  0.88873098  0.13567654  0.02842679    -0.05200
C3330       C  0.88659140  0.11672702  0.04302899    -0.23600
C3331       C  0.90524267  0.11371395  0.04417982     0.12700
C3332       C  0.92542387  0.12961453  0.03109843    -0.12800
N3333       N  0.91059292  0.17140232  0.00331103     0.64400
H3334       H  0.87480959  0.13856954  0.02767006     0.12300
N3335       N  0.90392007  0.09442142  0.05776006     0.61000
H3336       H  0.93951282  0.12699084  0.03173041     0.08400
O3337       O  0.96032969  0.20017399  0.91690630    -0.40400
O3338       O  0.97510473  0.17940759  0.90907122    -0.39600
O3339       O  0.97653237  0.16136074  0.06281368    -0.39600
O3340       O  0.96378506  0.18362552  0.07270074    -0.37300
O3341       O  0.89998137  0.07806124  0.04101032    -0.38200
O3342       O  0.91193106  0.09586282  0.08409149    -0.34400
O3343       O  0.90159369  0.17047708  0.97790197    -0.35800
O3344       O  0.91607715  0.18790733  0.02056502    -0.40100
C3345       C  0.10140717  0.30486752  0.08375004    -0.13800
C3346       C  0.12012391  0.32460385  0.07420060     0.16600
C3347       C  0.12772469  0.32633330  0.04391934     0.02900
C3348       C  0.11546084  0.30919627  0.02312709    -0.12300
C3349       C  0.09551574  0.29031520  0.03188435    -0.03300
C3350       C  0.08912246  0.28769079  0.06295281     0.02200
C3351       C  0.12934718  0.34390496  0.09513419     0.09000
N3352       N  0.14752801  0.34554598  0.03368592     0.65400
H3353       H  0.12092606  0.31135212  0.99955087     0.18300
N3354       N  0.07021363  0.26782292  0.07374140     0.75800
H3355       H  0.09570486  0.30321401  0.10718360     0.09800
C3356       C  0.12387002  0.36065131  0.09112796     0.03500
C3357       C  0.12937201  0.37678919  0.11366296    -0.05200
C3358       C  0.13977122  0.37643378  0.14107074    -0.23600
C3359       C  0.14615122  0.36012528  0.14447642     0.12700
C3360       C  0.14084594  0.34403952  0.12152700    -0.12800
N3361       N  0.11068303  0.36022014  0.06579727     0.64400
H3362       H  0.12421683  0.38896848  0.11021506     0.12300
N3363       N  0.15702827  0.35889891  0.17146821     0.61000
H3364       H  0.14489926  0.33103977  0.12489803     0.08400
O3365       O  0.05258327  0.26796450  0.08003574    -0.40400
O3366       O  0.07280455  0.25225074  0.08370571    -0.39600
O3367       O  0.16553625  0.34530511  0.03412931    -0.39600
O3368       O  0.14599264  0.35939110  0.01677033    -0.37300
O3369       O  0.14567107  0.34543150  0.19231075    -0.38200
O3370       O  0.17777908  0.36678468  0.17102832    -0.34400
O3371       O  0.08979938  0.34944931  0.06815300    -0.35800
O3372       O  0.11948112  0.37477996  0.04521428    -0.40100
C3373       C  0.14806855  0.33033870  0.87666974    -0.13800
C3374       C  0.14857033  0.32922026  0.84460375     0.16600
C3375       C  0.13201739  0.31006555  0.82978882     0.02900
C3376       C  0.11581539  0.29238770  0.84695041    -0.12300
C3377       C  0.11540089  0.29312492  0.87913269    -0.03300
C3378       C  0.13170876  0.31262304  0.89398157     0.02200
C3379       C  0.16720853  0.34747142  0.82715274     0.09000
N3380       N  0.13108139  0.30846815  0.79719091     0.65400
H3381       H  0.10330553  0.27795464  0.83474163     0.18300
N3382       N  0.13259742  0.31446483  0.92653586     0.75800
H3383       H  0.16086905  0.34481964  0.88845423     0.09800
C3384       C  0.17179896  0.36960648  0.82902383     0.03500
C3385       C  0.19019223  0.38650944  0.81370751    -0.05200
C3386       C  0.20423379  0.38194058  0.79578633    -0.23600
C3387       C  0.19945733  0.35967984  0.79353773     0.12700
C3388       C  0.18120000  0.34279196  0.80932971    -0.12800
N3389       N  0.15738222  0.37510620  0.84527135     0.64400
H3390       H  0.19318515  0.40334079  0.81535675     0.12300
N3391       N  0.21339328  0.35398825  0.77639076     0.61000
H3392       H  0.17816195  0.32593439  0.80808133     0.08400
O3393       O  0.12592244  0.32631730  0.93936648    -0.40400
O3394       O  0.14485677  0.30916927  0.94122409    -0.39600
O3395       O  0.13659816  0.29580765  0.78400443    -0.39600
O3396       O  0.12006515  0.31535304  0.78262724    -0.37300
O3397       O  0.22850149  0.35233346  0.78994793    -0.38200
O3398       O  0.20753859  0.34593549  0.74990425    -0.34400
O3399       O  0.16356585  0.38505326  0.87060214    -0.35800
O3400       O  0.14152113  0.37502525  0.83119092    -0.40100
C3401       C  0.14479205  0.46556724  0.39290982    -0.13800
C3402       C  0.12236837  0.45640113  0.40063327     0.16600
C3403       C  0.10605492  0.44481281  0.37811845     0.02900
C3404       C  0.11243720  0.44238093  0.34849342    -0.12300
C3405       C  0.13495825  0.45131891  0.34086389    -0.03300
C3406       C  0.15120357  0.46320479  0.36346154     0.02200
C3407       C  0.11692490  0.46170366  0.43116638     0.09000
N3408       N  0.08301498  0.43574014  0.38479894     0.65400
H3409       H  0.09970937  0.43312362  0.33158126     0.18300
N3410       N  0.17436831  0.47394510  0.35650447     0.75800
H3411       H  0.15747857  0.47510210  0.40976056     0.09800
C3412       C  0.11098530  0.44703856  0.45617544     0.03500
C3413       C  0.10797379  0.45376579  0.48526301    -0.05200
C3414       C  0.11132763  0.47523485  0.49015988    -0.23600
C3415       C  0.11810791  0.49012095  0.46506550     0.12700
C3416       C  0.12048762  0.48312814  0.43600561    -0.12800
N3417       N  0.10893919  0.42567398  0.45274107     0.64400
H3418       H  0.10301013  0.44211165  0.50407280     0.12300
N3419       N  0.12404606  0.51284990  0.46892353     0.61000
H3420       H  0.12594738  0.49482601  0.41718343     0.08400
O3421       O  0.18569624  0.46551273  0.36572085    -0.40400
O3422       O  0.18416585  0.49381627  0.34735111    -0.39600
O3423       O  0.07333563  0.44605643  0.37629998    -0.39600
O3424       O  0.07153866  0.41555048  0.39219671    -0.37300
O3425       O  0.14387782  0.52701153  0.47540444    -0.38200
O3426       O  0.11127513  0.51937668  0.45893080    -0.34400
O3427       O  0.12538752  0.42335960  0.45884863    -0.35800
O3428       O  0.08986848  0.40869024  0.45101928    -0.40100
C3429       C  0.13490700  0.60444005  0.62965371    -0.13800
C3430       C  0.11869630  0.60531448  0.64770481     0.16600
C3431       C  0.09802561  0.58593884  0.65187100     0.02900
C3432       C  0.09407927  0.56596651  0.63882487    -0.12300
C3433       C  0.11014857  0.56483165  0.62059842    -0.03300
C3434       C  0.13077650  0.58447535  0.61584596     0.02200
C3435       C  0.12261537  0.62690358  0.65949432     0.09000
N3436       N  0.08028017  0.58657517  0.66742185     0.65400
H3437       H  0.07788820  0.55137075  0.64213132     0.18300
N3438       N  0.14767895  0.58455996  0.59717941     0.75800
H3439       H  0.15068440  0.61943959  0.62579248     0.09800
C3440       C  0.12713493  0.63276421  0.69054034     0.03500
C3441       C  0.12864336  0.65247770  0.70112587    -0.05200
C3442       C  0.12538535  0.66654801  0.68136766    -0.23600
C3443       C  0.12161363  0.66085676  0.64984752     0.12700
C3444       C  0.12042284  0.64126714  0.63935877    -0.12800
N3445       N  0.12993437  0.61875837  0.71174392     0.64400
H3446       H  0.13167513  0.65634738  0.72525823     0.12300
N3447       N  0.11772626  0.67396481  0.62829690     0.61000
H3448       H  0.11689557  0.63679539  0.61542762     0.08400
O3449       O  0.16368733  0.58395305  0.60972991    -0.40400
O3450       O  0.14938851  0.59054485  0.56961577    -0.39600
O3451       O  0.06705472  0.59025674  0.65221484    -0.39600
O3452       O  0.07456308  0.57799521  0.69362315    -0.37300
O3453       O  0.13350490  0.68754576  0.61160449    -0.38200
O3454       O  0.09802522  0.66807956  0.62077692    -0.34400
O3455       O  0.14931988  0.62350460  0.71928966    -0.35800
O3456       O  0.11382591  0.60584044  0.72848758    -0.40100
C3457       C  0.15378215  0.47011292  0.69165568    -0.13800
C3458       C  0.17027747  0.47099820  0.67235573     0.16600
C3459       C  0.16793921  0.47239155  0.64043599     0.02900
C3460       C  0.14862439  0.47108977  0.62849116    -0.12300
C3461       C  0.13140518  0.46873011  0.64771902    -0.03300
C3462       C  0.13472299  0.46937420  0.67985423     0.02200
C3463       C  0.18734333  0.46638291  0.68548831     0.09000
N3464       N  0.18488665  0.47479578  0.61970621     0.65400
H3465       H  0.14690367  0.47128461  0.60389473     0.18300
N3466       N  0.11885038  0.46892774  0.70106371     0.75800
H3467       H  0.15502553  0.46875357  0.71613764     0.09800
C3468       C  0.20044847  0.47775546  0.71122316     0.03500
C3469       C  0.21413253  0.47065878  0.72479500    -0.05200
C3470       C  0.21504833  0.45216861  0.71350729    -0.23600
C3471       C  0.20186735  0.44089208  0.68761756     0.12700
C3472       C  0.18829649  0.44802613  0.67420460    -0.12800
N3473       N  0.20013748  0.49653671  0.72394641     0.64400
H3474       H  0.22401619  0.47970088  0.74444753     0.12300
N3475       N  0.20127969  0.42161876  0.67505423     0.61000
H3476       H  0.17761611  0.43840459  0.65546596     0.08400
O3477       O  0.12188079  0.48697020  0.71226277    -0.40400
O3478       O  0.10542630  0.45087882  0.71395484    -0.39600
O3479       O  0.18158068  0.45854293  0.60315261    -0.39600
O3480       O  0.19985946  0.49407520  0.61222035    -0.37300
O3481       O  0.18640182  0.40262219  0.68375294    -0.38200
O3482       O  0.21189750  0.42339083  0.65081919    -0.34400
O3483       O  0.19023984  0.49441500  0.74898691    -0.35800
O3484       O  0.21430366  0.51574218  0.71497349    -0.40100
C3485       C  0.02171528  0.50759534  0.49864576    -0.13800
C3486       C  0.00372645  0.50453967  0.51667759     0.16600
C3487       C  0.00371216  0.49982440  0.54812199     0.02900
C3488       C  0.02174300  0.49895205  0.56085409    -0.12300
C3489       C  0.04020311  0.50296323  0.54303642    -0.03300
C3490       C  0.03991836  0.50714890  0.51139947     0.02200
C3491       C  0.98468529  0.50488869  0.50161069     0.09000
N3492       N  0.98592623  0.49661715  0.56777571     0.65400
H3493       H  0.02154246  0.49580352  0.58514460     0.18300
N3494       N  0.05770634  0.51058034  0.49158536     0.75800
H3495       H  0.02155804  0.51005696  0.47422919     0.09800
C3496       C  0.98786466  0.52212103  0.48143169     0.03500
C3497       C  0.96990013  0.52059971  0.46503559    -0.05200
C3498       C  0.94841734  0.50232799  0.46845778    -0.23600
C3499       C  0.94510961  0.48536586  0.48933644     0.12700
C3500       C  0.96319567  0.48668949  0.50523698    -0.12800
N3501       N  0.00918094  0.54148220  0.47748053     0.64400
H3502       H  0.97285618  0.53400832  0.44964335     0.12300
N3503       N  0.92372597  0.46621222  0.49392188     0.61000
H3504       H  0.96046044  0.47293228  0.51971376     0.08400
O3505       O  0.05613534  0.49439953  0.47643899    -0.40400
O3506       O  0.07168983  0.53009868  0.48348450    -0.39600
O3507       O  0.97259257  0.47735761  0.57753109    -0.39600
O3508       O  0.98704282  0.51317889  0.58130247    -0.37300
O3509       O  0.91281355  0.46494856  0.51764166    -0.38200
O3510       O  0.91821648  0.44890252  0.47841654    -0.34400
O3511       O  0.01940868  0.54419598  0.45257931    -0.35800
O3512       O  0.01466069  0.55802744  0.49464118    -0.40100
C3513       C  0.88727474  0.47616719  0.83544116    -0.13800
C3514       C  0.87590544  0.48407499  0.85311236     0.16600
C3515       C  0.86671473  0.47380523  0.88133487     0.02900
C3516       C  0.87004802  0.45672365  0.89210206    -0.12300
C3517       C  0.88221677  0.44927753  0.87505308    -0.03300
C3518       C  0.89035330  0.45886358  0.84588047     0.02200
C3519       C  0.87372851  0.50288187  0.84129607     0.09000
N3520       N  0.85329567  0.47994877  0.89887501     0.65400
H3521       H  0.86330459  0.44951389  0.91423516     0.18300
N3522       N  0.90142627  0.45106984  0.82620057     0.75800
H3523       H  0.89393924  0.48359320  0.81335914     0.09800
C3524       C  0.88510952  0.52408182  0.85492542     0.03500
C3525       C  0.88320173  0.54158453  0.84249607    -0.05200
C3526       C  0.87079654  0.53876511  0.81577582    -0.23600
C3527       C  0.86000000  0.51765464  0.80159484     0.12700
C3528       C  0.86132445  0.49992689  0.81465096    -0.12800
N3529       N  0.90012284  0.52861873  0.87979070     0.64400
H3530       H  0.89243722  0.55782054  0.85308883     0.12300
N3531       N  0.84763558  0.51385571  0.77400642     0.61000
H3532       H  0.85288877  0.48379439  0.80363721     0.08400
O3533       O  0.89030119  0.43651474  0.80633707    -0.40400
O3534       O  0.92228630  0.46224565  0.82368280    -0.39600
O3535       O  0.83266372  0.47013046  0.89391997    -0.39600
O3536       O  0.86067934  0.49014691  0.92382040    -0.37300
O3537       O  0.85660959  0.51424008  0.74875543    -0.38200
O3538       O  0.82682026  0.50528618  0.77538315    -0.34400
O3539       O  0.92002100  0.53419117  0.87401398    -0.35800
O3540       O  0.89536035  0.53289750  0.90581470    -0.40100
C3541       C  0.82320688  0.30125436  0.85780525    -0.13800
C3542       C  0.82645872  0.29088101  0.83237993     0.16600
C3543       C  0.84771090  0.30010331  0.81928680     0.02900
C3544       C  0.86534848  0.31934237  0.83169352    -0.12300
C3545       C  0.86234446  0.32983121  0.85722037    -0.03300
C3546       C  0.84095405  0.32070717  0.87025223     0.02200
C3547       C  0.80760613  0.27065318  0.81915883     0.09000
N3548       N  0.85171742  0.28991669  0.79356652     0.65400
H3549       H  0.88167171  0.32585652  0.82157278     0.18300
N3550       N  0.83670640  0.33162445  0.89481684     0.75800
H3551       H  0.80678319  0.29440334  0.86769912     0.09800
C3552       C  0.80075513  0.24963015  0.83168948     0.03500
C3553       C  0.78436606  0.23060182  0.81702252    -0.05200
C3554       C  0.77442296  0.23189311  0.78960106    -0.23600
C3555       C  0.78056412  0.25325011  0.77799648     0.12700
C3556       C  0.79719083  0.27232220  0.79271056    -0.12800
N3557       N  0.81096587  0.24724081  0.85862065     0.64400
H3558       H  0.77983983  0.21463370  0.82700408     0.12300
N3559       N  0.77055259  0.25605166  0.75115352     0.61000
H3560       H  0.80228109  0.28854780  0.78313649     0.08400
O3561       O  0.83424854  0.32396607  0.92156176    -0.40400
O3562       O  0.83055017  0.34546311  0.88882152    -0.39600
O3563       O  0.85309857  0.29792674  0.76725860    -0.39600
O3564       O  0.85877915  0.27659596  0.79787711    -0.37300
O3565       O  0.75504706  0.26035725  0.75403072    -0.38200
O3566       O  0.78080996  0.26013756  0.72605148    -0.34400
O3567       O  0.80098939  0.24365072  0.88389214    -0.35800
O3568       O  0.82690298  0.24356036  0.85602976    -0.40100
C3569       C  0.93589227  0.30077737  0.90925630    -0.13800
C3570       C  0.95544882  0.30911532  0.92639567     0.16600
C3571       C  0.96350055  0.32948023  0.94198538     0.02900
C3572       C  0.95242544  0.34159405  0.93926486    -0.12300
C3573       C  0.93358556  0.33391599  0.92065327    -0.03300
C3574       C  0.92501062  0.31304042  0.90610135     0.02200
C3575       C  0.96808431  0.29717346  0.92609343     0.09000
N3576       N  0.98365278  0.33869971  0.95913625     0.65400
H3577       H  0.95946901  0.35777583  0.95002943     0.18300
N3578       N  0.90548051  0.30426489  0.88760754     0.75800
H3579       H  0.92949621  0.28505204  0.89739181     0.09800
C3580       C  0.96407217  0.28071608  0.94782566     0.03500
C3581       C  0.97737058  0.27090717  0.94822954    -0.05200
C3582       C  0.99473706  0.27706867  0.92710085    -0.23600
C3583       C  0.99777271  0.29248872  0.90396949     0.12700
C3584       C  0.98454458  0.30251457  0.90381273    -0.12800
N3585       N  0.94697763  0.27423165  0.97021499     0.64400
H3586       H  0.97453008  0.25884395  0.96589551     0.12300
N3587       N  0.01500485  0.29919128  0.88173106     0.61000
H3588       H  0.98747937  0.31492797  0.88666491     0.08400
O3589       O  0.88694289  0.29071628  0.89922010    -0.40400
O3590       O  0.90734623  0.30595202  0.85890087    -0.39600
O3591       O  0.00161880  0.35289354  0.94680148    -0.39600
O3592       O  0.98279957  0.33626141  0.98776995    -0.37300
O3593       O  0.01046605  0.28990199  0.85585657    -0.38200
O3594       O  0.03294231  0.31728666  0.88529562    -0.34400
O3595       O  0.92889460  0.25628049  0.96665958    -0.35800
O3596       O  0.95178429  0.28334088  0.99620147    -0.40100
C3597       C  0.02013762  0.46103990  0.74316430    -0.13800
C3598       C  0.00403088  0.46702147  0.73772189     0.16600
C3599       C  0.00554984  0.47909097  0.71110523     0.02900
C3600       C  0.02238186  0.48383774  0.68961429    -0.12300
C3601       C  0.03787021  0.47672413  0.69417894    -0.03300
C3602       C  0.03695504  0.46575288  0.72198277     0.02200
C3603       C  0.98536158  0.45896706  0.75972089     0.09000
N3604       N  0.99027368  0.48673279  0.70558998     0.65400
H3605       H  0.02285981  0.49253198  0.66883866     0.18300
N3606       N  0.05247861  0.45860292  0.72894226     0.75800
H3607       H  0.01923867  0.45195119  0.76375254     0.09800
C3608       C  0.96519130  0.43929237  0.75376862     0.03500
C3609       C  0.95044479  0.42804922  0.77773232    -0.05200
C3610       C  0.95537177  0.43596660  0.80789373    -0.23600
C3611       C  0.97480207  0.45660617  0.81346450     0.12700
C3612       C  0.98960295  0.46782352  0.78940596    -0.12800
N3613       N  0.96041465  0.42931177  0.72413114     0.64400
H3614       H  0.93554073  0.41238474  0.77290511     0.12300
N3615       N  0.98096504  0.46526066  0.84376386     0.61000
H3616       H  0.00526421  0.48269935  0.79435777     0.08400
O3617       O  0.04691643  0.43850730  0.72484415    -0.40400
O3618       O  0.06894859  0.47060702  0.74575618    -0.39600
O3619       O  0.99576303  0.50639983  0.71279364    -0.39600
O3620       O  0.97464247  0.47638519  0.68681526    -0.37300
O3621       O  0.99307774  0.46031157  0.85946390    -0.38200
O3622       O  0.97857650  0.48133896  0.85197015    -0.34400
O3623       O  0.96512039  0.41436419  0.71835513    -0.35800
O3624       O  0.94678624  0.43119931  0.70719449    -0.40100
C3625       C  0.96961583  0.49462783  0.97911257    -0.13800
C3626       C  0.98780590  0.49181934  0.98539430     0.16600
C3627       C  0.98738389  0.47221452  0.97616706     0.02900
C3628       C  0.96887570  0.45583436  0.96062785    -0.12300
C3629       C  0.95049097  0.45842151  0.95489744    -0.03300
C3630       C  0.95093194  0.47807135  0.96405000     0.02200
C3631       C  0.00615329  0.50897659  0.00358362     0.09000
N3632       N  0.00490601  0.46806190  0.98397043     0.65400
H3633       H  0.96852844  0.44064039  0.95396875     0.18300
N3634       N  0.93294580  0.48178144  0.95733700     0.75800
H3635       H  0.96987638  0.50969391  0.98623678     0.09800
C3636       C  0.02660092  0.52425333  0.99038072     0.03500
C3637       C  0.04271073  0.54155025  0.00809884    -0.05200
C3638       C  0.03889302  0.54401553  0.03910335    -0.23600
C3639       C  0.01834856  0.52835099  0.05213079     0.12700
C3640       C  0.00225314  0.51111570  0.03436042    -0.12800
N3641       N  0.03099598  0.52298950  0.95878173     0.64400
H3642       H  0.05821152  0.55328524  0.99722733     0.12300
N3643       N  0.01369797  0.52899882  0.08360226     0.61000
H3644       H  0.98649040  0.49934156  0.04465248     0.08400
O3645       O  0.93396253  0.49275435  0.93383175    -0.40400
O3646       O  0.91905493  0.47880992  0.97799353    -0.39600
O3647       O  0.00333409  0.45759479  0.00825199    -0.39600
O3648       O  0.01803169  0.46903326  0.96332166    -0.37300
O3649       O  0.00166311  0.53703623  0.09114519    -0.38200
O3650       O  0.01544469  0.51574429  0.10144243    -0.34400
O3651       O  0.02752540  0.53453842  0.93977298    -0.35800
O3652       O  0.04362229  0.51559732  0.95142120    -0.40100
C3653       C  0.99631218  0.22958192  0.71311985    -0.13800
C3654       C  0.98933154  0.21285026  0.73534663     0.16600
C3655       C  0.97253245  0.19115616  0.72798674     0.02900
C3656       C  0.96339138  0.18639046  0.69864227    -0.12300
C3657       C  0.97040738  0.20295825  0.67610682    -0.03300
C3658       C  0.98684995  0.22490482  0.68375027     0.02200
C3659       C  0.99958787  0.21817481  0.76616347     0.09000
N3660       N  0.96483530  0.17364158  0.74993725     0.65400
H3661       H  0.95072869  0.16946103  0.69343566     0.18300
N3662       N  0.99289827  0.24287519  0.66297215     0.75800
H3663       H  0.00879131  0.24647154  0.71886068     0.09800
C3664       C  0.02211473  0.22487223  0.77018354     0.03500
C3665       C  0.03117142  0.22874761  0.79955447    -0.05200
C3666       C  0.01824890  0.22621637  0.82566650    -0.23600
C3667       C  0.99571643  0.22022811  0.82143044     0.12700
C3668       C  0.98663819  0.21612731  0.79186039    -0.12800
N3669       N  0.03587652  0.22700414  0.74468867     0.64400
H3670       H  0.04851826  0.23355273  0.80176623     0.12300
N3671       N  0.98156209  0.21763884  0.84663461     0.61000
H3672       H  0.96932039  0.21127429  0.78893455     0.08400
O3673       O  0.01176288  0.25194639  0.65043398    -0.40400
O3674       O  0.98203191  0.25294355  0.66322481    -0.39600
O3675       O  0.94628480  0.16690639  0.76273475    -0.39600
O3676       O  0.97408044  0.16203189  0.75158054    -0.37300
O3677       O  0.98074734  0.23433401  0.85625147    -0.38200
O3678       O  0.96591321  0.19844729  0.85308289    -0.34400
O3679       O  0.04987230  0.24611834  0.73519756    -0.35800
O3680       O  0.03750624  0.21049450  0.73641205    -0.40100
C3681       C  0.82268846  0.02603558  0.52331626    -0.13800
C3682       C  0.82859762  0.04726793  0.51243709     0.16600
C3683       C  0.81692615  0.04906937  0.48716637     0.02900
C3684       C  0.79999307  0.02992974  0.47323108    -0.12300
C3685       C  0.79362107  0.00877133  0.48468716    -0.03300
C3686       C  0.80510887  0.00689424  0.51012485     0.02200
C3687       C  0.84748986  0.06734743  0.52662418     0.09000
N3688       N  0.82100317  0.07023684  0.47666091     0.65400
H3689       H  0.79088505  0.03171072  0.45439449     0.18300
N3690       N  0.79938561  0.98571132  0.52261266     0.75800
H3691       H  0.83178690  0.02425338  0.54212645     0.09800
C3692       C  0.84874218  0.07156016  0.55843252     0.03500
C3693       C  0.86612531  0.09146753  0.57026696    -0.05200
C3694       C  0.88222125  0.10751406  0.55091305    -0.23600
C3695       C  0.88176500  0.10268564  0.51948760     0.12700
C3696       C  0.86463545  0.08269334  0.50775042    -0.12800
N3697       N  0.83176087  0.05658726  0.57878068     0.64400
H3698       H  0.86621007  0.09498611  0.59443175     0.12300
N3699       N  0.89867972  0.11785284  0.49919648     0.61000
H3700       H  0.86458171  0.07927466  0.48357010     0.08400
O3701       O  0.78820635  0.97939816  0.54698993    -0.40400
O3702       O  0.80998559  0.97631951  0.51405864    -0.39600
O3703       O  0.83034074  0.07744713  0.45115587    -0.39600
O3704       O  0.81079515  0.07893594  0.48903201    -0.37300
O3705       O  0.91537825  0.11572704  0.49413186    -0.38200
O3706       O  0.89456261  0.12961245  0.48142409    -0.34400
O3707       O  0.83576730  0.04478223  0.59662428    -0.35800
O3708       O  0.81534653  0.05913522  0.58408852    -0.40100
C3709       C  0.07880129  0.23664467  0.48924340    -0.13800
C3710       C  0.06096286  0.21495215  0.48650873     0.16600
C3711       C  0.06355594  0.19951910  0.46854783     0.02900
C3712       C  0.08411427  0.20576989  0.45485370    -0.12300
C3713       C  0.10219039  0.22740828  0.45823262    -0.03300
C3714       C  0.09914749  0.24305155  0.47515791     0.02200
C3715       C  0.03925427  0.20995005  0.49950856     0.09000
N3716       N  0.04553119  0.17744398  0.46404985     0.65400
H3717       H  0.08596405  0.19356589  0.44173999     0.18300
N3718       N  0.11569616  0.26603692  0.47574714     0.75800
H3719       H  0.07662097  0.24905277  0.50128377     0.09800
C3720       C  0.03668603  0.21290697  0.53088759     0.03500
C3721       C  0.01702917  0.21151677  0.54145399    -0.05200
C3722       C  0.99988708  0.20785366  0.52117710    -0.23600
C3723       C  0.00233246  0.20435960  0.48976879     0.12700
C3724       C  0.02181134  0.20530318  0.47942224    -0.12800
N3725       N  0.05419449  0.21817033  0.55220028     0.64400
H3726       H  0.01571646  0.21447237  0.56549489     0.12300
N3727       N  0.98564555  0.20064698  0.46773086     0.61000
H3728       H  0.02379108  0.20361987  0.45516324     0.08400
O3729       O  0.12747915  0.27406201  0.49936578    -0.40400
O3730       O  0.11410496  0.27893599  0.45700647    -0.39600
O3731       O  0.03483921  0.17256427  0.43925270    -0.39600
O3732       O  0.04391408  0.16205516  0.48102821    -0.37300
O3733       O  0.98774000  0.21672245  0.45183826    -0.38200
O3734       O  0.97216711  0.18105950  0.45926761    -0.34400
O3735       O  0.06629435  0.23806214  0.56068655    -0.35800
O3736       O  0.05371138  0.20281129  0.56808663    -0.40100
C3737       C  0.80331760  0.15493891  0.68811628    -0.13800
C3738       C  0.81840990  0.17407255  0.67201421     0.16600
C3739       C  0.81490945  0.19236415  0.67139265     0.02900
C3740       C  0.79684090  0.19137367  0.68705656    -0.12300
C3741       C  0.78191823  0.17238596  0.70368617    -0.03300
C3742       C  0.78522677  0.15391788  0.70380742     0.02200
C3743       C  0.83724980  0.17428710  0.65540964     0.09000
N3744       N  0.82996313  0.21238586  0.65582894     0.65400
H3745       H  0.79479220  0.20582517  0.68669404     0.18300
N3746       N  0.76992344  0.13365215  0.71862611     0.75800
H3747       H  0.80534503  0.14047664  0.68803855     0.09800
C3748       C  0.85267804  0.17028880  0.67083018     0.03500
C3749       C  0.86949732  0.16937734  0.65448729    -0.05200
C3750       C  0.87146484  0.17216882  0.62251976    -0.23600
C3751       C  0.85586302  0.17603202  0.60700288     0.12700
C3752       C  0.83907733  0.17715678  0.62352760    -0.12800
N3753       N  0.85171699  0.16740380  0.70325507     0.64400
H3754       H  0.88119819  0.16651425  0.66718051     0.12300
N3755       N  0.85595410  0.17759894  0.57443974     0.61000
H3756       H  0.82695463  0.17959044  0.61122258     0.08400
O3757       O  0.77554005  0.12839237  0.74321771    -0.40400
O3758       O  0.75355018  0.11899190  0.70383292    -0.39600
O3759       O  0.82432271  0.21676473  0.63053731    -0.39600
O3760       O  0.84597419  0.22769343  0.67040111    -0.37300
O3761       O  0.84382350  0.16039448  0.55891002    -0.38200
O3762       O  0.86378073  0.19643357  0.56207901    -0.34400
O3763       O  0.84436858  0.14818404  0.71416400    -0.35800
O3764       O  0.86272435  0.18409241  0.72020731    -0.40100
C3765       C  0.03192154  0.36102323  0.55996987    -0.13800
C3766       C  0.03498022  0.34898471  0.58342141     0.16600
C3767       C  0.05024205  0.36067385  0.60693243     0.02900
C3768       C  0.06063127  0.38382711  0.60800281    -0.12300
C3769       C  0.05653151  0.39586293  0.58570183    -0.03300
C3770       C  0.04270243  0.38432273  0.56075032     0.02200
C3771       C  0.02220998  0.32435026  0.58233257     0.09000
N3772       N  0.05586394  0.34944590  0.62944714     0.65400
H3773       H  0.07166398  0.39250569  0.62695093     0.18300
N3774       N  0.03840349  0.39576202  0.53703541     0.75800
H3775       H  0.02061740  0.35222204  0.54133606     0.09800
C3776       C  0.00603238  0.31145374  0.60453981     0.03500
C3777       C  0.99262007  0.28844107  0.60038836    -0.05200
C3778       C  0.99461537  0.27809031  0.57406716    -0.23600
C3779       C  0.01143838  0.29085576  0.55261323     0.12700
C3780       C  0.02504047  0.31371817  0.55697135    -0.12800
N3781       N  0.00154429  0.32156846  0.62991317     0.64400
H3782       H  0.97957694  0.27890560  0.61676867     0.12300
N3783       N  0.01486666  0.28085713  0.52614685     0.61000
H3784       H  0.03752813  0.32336952  0.53995733     0.08400
O3785       O  0.02036192  0.39594674  0.53718390    -0.40400
O3786       O  0.04965446  0.40059897  0.51272424    -0.39600
O3787       O  0.07116226  0.34526577  0.62361068    -0.39600
O3788       O  0.05054047  0.34972693  0.65695661    -0.37300
O3789       O  0.00702291  0.28219965  0.50075541    -0.38200
O3790       O  0.02938296  0.27505620  0.52682863    -0.34400
O3791       O  0.98882563  0.32940664  0.62609007    -0.35800
O3792       O  0.00474535  0.31698281  0.65665729    -0.40100
C3793       C  0.88593216  0.36605432  0.06869497    -0.13800
C3794       C  0.87366012  0.34289584  0.07175385     0.16600
C3795       C  0.86573884  0.32978680  0.04507909     0.02900
C3796       C  0.87032134  0.33989607  0.01609756    -0.12300
C3797       C  0.88234207  0.36315041  0.01287180    -0.03300
C3798       C  0.89014998  0.37625498  0.03982122     0.02200
C3799       C  0.86804207  0.33294709  0.10301785     0.09000
N3800       N  0.85307600  0.30612932  0.04701464     0.65400
H3801       H  0.86407378  0.32942674  0.99599479     0.18300
N3802       N  0.90266147  0.39995904  0.03846784     0.75800
H3803       H  0.89193278  0.37636104  0.08898688     0.09800
C3804       C  0.88443847  0.33404776  0.12312980     0.03500
C3805       C  0.87870803  0.32569305  0.15303429    -0.05200
C3806       C  0.85669335  0.31573778  0.16336057    -0.23600
C3807       C  0.84032725  0.31491667  0.14337461     0.12700
C3808       C  0.84611483  0.32352183  0.11360110    -0.12800
N3809       N  0.90673764  0.34241303  0.11297969     0.64400
H3810       H  0.89135742  0.32604368  0.16780532     0.12300
N3811       N  0.81790963  0.30617326  0.15334336     0.61000
H3812       H  0.83343846  0.32307658  0.09874665     0.08400
O3813       O  0.92356774  0.40968913  0.03999417    -0.40400
O3814       O  0.89296819  0.41091029  0.04324237    -0.39600
O3815       O  0.83226823  0.29640316  0.04381579    -0.39600
O3816       O  0.86286359  0.29503738  0.04514138    -0.37300
O3817       O  0.81217109  0.31911823  0.16509285    -0.38200
O3818       O  0.80314858  0.28726432  0.14416073    -0.34400
O3819       O  0.92184941  0.36095574  0.12273160    -0.35800
O3820       O  0.91197165  0.32926518  0.10063389    -0.40100
C3821       C  0.70225564  0.17184913  0.35825674    -0.13800
C3822       C  0.70415511  0.17381880  0.32636950     0.16600
C3823       C  0.68647281  0.15829748  0.30814487     0.02900
C3824       C  0.66778438  0.14065600  0.32198264    -0.12300
C3825       C  0.66634462  0.13774259  0.35395472    -0.03300
C3826       C  0.68369976  0.15409785  0.37219181     0.02200
C3827       C  0.72597514  0.19005426  0.31304918     0.09000
N3828       N  0.68793924  0.15907279  0.27554307     0.65400
H3829       H  0.65478390  0.12856628  0.30732270     0.18300
N3830       N  0.68360419  0.15233798  0.40473622     0.75800
H3831       H  0.71584599  0.18363670  0.37246543     0.09800
C3832       C  0.72957408  0.20920025  0.29719755     0.03500
C3833       C  0.75082092  0.22420211  0.28602575    -0.05200
C3834       C  0.76885998  0.22070885  0.29061784    -0.23600
C3835       C  0.76511054  0.20141018  0.30652734     0.12700
C3836       C  0.74384474  0.18639902  0.31746492    -0.12800
N3837       N  0.71216240  0.21420050  0.29332854     0.64400
H3838       H  0.75326529  0.23891790  0.27413012     0.12300
N3839       N  0.78242805  0.19631186  0.31095693     0.61000
H3840       H  0.74122519  0.17166356  0.32951572     0.08400
O3841       O  0.67836677  0.16409779  0.42080075    -0.40400
O3842       O  0.69367434  0.14349846  0.41705979    -0.39600
O3843       O  0.69560010  0.14828670  0.26208756    -0.39600
O3844       O  0.67643277  0.16516947  0.26056569    -0.37300
O3845       O  0.79226969  0.20051372  0.33639697    -0.38200
O3846       O  0.78415011  0.18321125  0.29265880    -0.34400
O3847       O  0.70964910  0.22590777  0.31323128    -0.35800
O3848       O  0.70389486  0.21244411  0.26710681    -0.40100
C3849       C  0.88776745  0.41962693  0.34105843    -0.13800
C3850       C  0.87443377  0.40005206  0.35748384     0.16600
C3851       C  0.86568010  0.40160153  0.38588909     0.02900
C3852       C  0.87030002  0.42239131  0.39724692    -0.12300
C3853       C  0.88402182  0.44215215  0.38118808    -0.03300
C3854       C  0.89276926  0.44050247  0.35257298     0.02200
C3855       C  0.87173282  0.37863676  0.34581866     0.09000
N3856       N  0.85205015  0.38220671  0.40359113     0.65400
H3857       H  0.86346680  0.42303403  0.41923976     0.18300
N3858       N  0.90693636  0.45976162  0.33487475     0.75800
H3859       H  0.89496665  0.41877700  0.31947024     0.09800
C3860       C  0.86137902  0.36946700  0.31757700     0.03500
C3861       C  0.86149895  0.35076850  0.30560281    -0.05200
C3862       C  0.87201089  0.34083091  0.32105497    -0.23600
C3863       C  0.88229483  0.35004079  0.34959745     0.12700
C3864       C  0.88184790  0.36855314  0.36166684    -0.12800
N3865       N  0.85061596  0.37894966  0.30070314     0.64400
H3866       H  0.85344908  0.34413567  0.28383403     0.12300
N3867       N  0.89474197  0.34199924  0.36565353     0.61000
H3868       H  0.89043267  0.37577129  0.38295326     0.08400
O3869       O  0.92771676  0.46813603  0.33678125    -0.40400
O3870       O  0.89890154  0.46492084  0.31261739    -0.39600
O3871       O  0.86016113  0.37818891  0.42685955    -0.39600
O3872       O  0.83123474  0.37259481  0.40059632    -0.37300
O3873       O  0.91528942  0.35072116  0.36052870    -0.38200
O3874       O  0.88669565  0.33057346  0.38953969    -0.34400
O3875       O  0.86007615  0.39062497  0.27746044    -0.35800
O3876       O  0.83010049  0.37146146  0.30452412    -0.40100
C3877       C  0.85672222  0.19887109  0.37372381    -0.13800
C3878       C  0.85972115  0.20625468  0.40409525     0.16600
C3879       C  0.85818329  0.22515602  0.41150127     0.02900
C3880       C  0.85525278  0.23719375  0.38827289    -0.12300
C3881       C  0.85411226  0.23092752  0.35755591    -0.03300
C3882       C  0.85401784  0.21105082  0.35036259     0.02200
C3883       C  0.87043254  0.19818944  0.42548307     0.09000
N3884       N  0.86216422  0.23385233  0.44190762     0.65400
H3885       H  0.85520952  0.25231471  0.39417214     0.18300
N3886       N  0.85393330  0.20443159  0.31938694     0.75800
H3887       H  0.85847122  0.18468064  0.36780125     0.09800
C3888       C  0.85996525  0.18600536  0.45201098     0.03500
C3889       C  0.87241743  0.18217282  0.47372153    -0.05200
C3890       C  0.89526833  0.19044421  0.46942853    -0.23600
C3891       C  0.90523725  0.20120120  0.44157316     0.12700
C3892       C  0.89274987  0.20496416  0.42007596    -0.12800
N3893       N  0.83685639  0.17754980  0.45735984     0.64400
H3894       H  0.86430590  0.17348797  0.49457114     0.12300
N3895       N  0.92823950  0.20947250  0.43523700     0.61000
H3896       H  0.90085109  0.21421464  0.39953374     0.08400
O3897       O  0.83662768  0.18803276  0.30872349    -0.40400
O3898       O  0.87218079  0.21119270  0.30569551    -0.39600
O3899       O  0.88165626  0.24818328  0.44962869    -0.39600
O3900       O  0.84603776  0.23177220  0.45766935    -0.37300
O3901       O  0.93386608  0.19803164  0.41914197    -0.38200
O3902       O  0.94211189  0.22967662  0.44014724    -0.34400
O3903       O  0.82322391  0.15783828  0.44957140    -0.35800
O3904       O  0.83098352  0.18703962  0.47676521    -0.40100
C3905       C  0.97185237  0.34898130  0.22421061    -0.13800
C3906       C  0.98455388  0.36225603  0.24883063     0.16600
C3907       C  0.97366714  0.36431226  0.27462052     0.02900
C3908       C  0.95055087  0.35182406  0.27654819    -0.12300
C3909       C  0.93776844  0.33708344  0.25311288    -0.03300
C3910       C  0.94852731  0.33656952  0.22599437     0.02200
C3911       C  0.00909067  0.37301776  0.24801089     0.09000
N3912       N  0.98590561  0.37814392  0.29977841     0.65400
H3913       H  0.94259009  0.35284773  0.29732338     0.18300
N3914       N  0.93627558  0.32270444  0.20087486     0.75800
H3915       H  0.98012440  0.34769571  0.20395986     0.09800
C3916       C  0.01987993  0.36141542  0.25726163     0.03500
C3917       C  0.04309815  0.37175648  0.25584261    -0.05200
C3918       C  0.05584702  0.39346562  0.24468780    -0.23600
C3919       C  0.04500568  0.40502496  0.23520679     0.12700
C3920       C  0.02180518  0.39488933  0.23747395    -0.12800
N3921       N  0.00737411  0.33876624  0.26679521     0.64400
H3922       H  0.05112353  0.36238608  0.26202423     0.12300
N3923       N  0.05721339  0.42667033  0.22202307     0.61000
H3924       H  0.01362356  0.40385939  0.23007837     0.08400
O3925       O  0.93520441  0.30418137  0.19740637    -0.40400
O3926       O  0.93140055  0.33108903  0.17875337    -0.39600
O3927       O  0.98726914  0.39682468  0.30290802    -0.39600
O3928       O  0.99051748  0.36972521  0.32212746    -0.37300
O3929       O  0.05853098  0.42862179  0.19330703    -0.38200
O3930       O  0.06190540  0.44345965  0.23827327    -0.34400
O3931       O  0.00245170  0.32347624  0.24751636    -0.35800
O3932       O  0.00505581  0.33419570  0.29493262    -0.40100
C3933       C  0.80755817  0.17859499  0.18261862    -0.13800
C3934       C  0.82663851  0.17654558  0.18242513     0.16600
C3935       C  0.84618059  0.19318534  0.19645928     0.02900
C3936       C  0.84631314  0.21134380  0.21058872    -0.12300
C3937       C  0.82734751  0.21357435  0.21047000    -0.03300
C3938       C  0.80772073  0.19682950  0.19664489     0.02200
C3939       C  0.82649900  0.15833170  0.16453953     0.09000
N3940       N  0.86640461  0.19263440  0.19491717     0.65400
H3941       H  0.86153249  0.22408042  0.22104147     0.18300
N3942       N  0.78764779  0.19773893  0.19764522     0.75800
H3943       H  0.79248405  0.16597675  0.17172876     0.09800
C3944       C  0.82634604  0.13994521  0.17835061     0.03500
C3945       C  0.82672891  0.12353614  0.16005073    -0.05200
C3946       C  0.82659899  0.12467523  0.12795398    -0.23600
C3947       C  0.82614604  0.14282089  0.11441996     0.12700
C3948       C  0.82626082  0.15944929  0.13264018    -0.12800
N3949       N  0.82478714  0.13710964  0.21075506     0.64400
H3950       H  0.82663109  0.10953396  0.17105980     0.12300
N3951       N  0.82523017  0.14458234  0.08218610     0.61000
H3952       H  0.82613006  0.17337794  0.12174709     0.08400
O3953       O  0.77715500  0.19417834  0.22248562    -0.40400
O3954       O  0.78195182  0.20478769  0.17480940    -0.39600
O3955       O  0.88001771  0.20304226  0.17374620    -0.39600
O3956       O  0.87303037  0.18701937  0.21827428    -0.37300
O3957       O  0.80704826  0.14055748  0.07045773    -0.38200
O3958       O  0.84305166  0.15600910  0.06754601    -0.34400
O3959       O  0.80584656  0.12581174  0.22275952    -0.35800
O3960       O  0.84166497  0.14022868  0.22555860    -0.40100
loop_ 
_geom_bond_atom_site_label_1 
_geom_bond_atom_site_label_2 
_geom_bond_distance 
_geom_bond_site_symmetry_2 
_ccdc_geom_bond_type 
O1           Ni7   1.933       .  S
O1           C22   1.275       .  A
O2          Ni25   1.900       .  S
O2           C11   1.263       .  A
O3           Ni7   1.912       .  S
O3          Ni25   1.910       .  S
O3          Ni19   1.928       .  S
O3           H26   0.966       .  S
C4           O21   1.281       .  A
C4           O13   1.278       .  A
C4         C3909   1.484       .  S
O5          Ni24   1.936       .  S
O5           C11   1.274       .  A
O6          Ni24   1.910       .  S
O6            C8   1.270       .  A
Ni7          O10   1.924       .  S
Ni7          O12   1.923       .  S
C8           O18   1.281       .  A
C8         C3862   1.500       .  S
O9          Ni25   1.922       .  S
O9           C15   1.273       .  A
O10          C15   1.276       .  A
C11        C3881   1.476       .  S
O12          C14   1.273       .  A
O13         Ni24   1.920       .  S
C14          O20   1.268       .  A
C14        C3937   1.481       .  S
C15        C3834   1.489       .  S
H16          O17   0.967       .  S
O17         Ni25   1.900       .  S
O17         Ni19   1.901       .  S
O17         Ni24   1.897       .  S
O18         Ni19   1.952       .  S
Ni19         O23   1.923       .  S
Ni19         O21   1.934       .  S
O20         Ni25   1.912       .  S
C22          O23   1.276       .  A
C22        C3806   1.488       .  S
O27         Ni33   1.931       .  S
O27          C48   1.275       .  A
O28         Ni51   1.900       .  S
O28          C37   1.265       .  A
O29         Ni33   1.901       .  S
O29         Ni51   1.902       .  S
O29         Ni45   1.925       .  S
O29          H52   0.966       .  S
C30          O47   1.280       .  A
C30          O39   1.277       .  A
C30        C3778   1.477       .  S
O31         Ni50   1.917       .  S
O31          C37   1.264       .  A
O32         Ni50   1.890       .  S
O32          C34   1.263       .  A
Ni33         O36   1.934       .  S
Ni33         O38   1.906       .  S
C34          O44   1.276       .  A
C34        C3722   1.486       .  S
O35         Ni51   1.908       .  S
O35          C41   1.272       .  A
O36          C41   1.278       .  A
C37        C3890   1.477       .  S
O38          C40   1.270       .  A
O39         Ni50   1.919       .  S
C40          O46   1.276       .  A
C40        C3750   1.497       .  S
C41        C3694   1.478       .  S
H42          O43   0.967       .  S
O43         Ni51   1.905       .  S
O43         Ni45   1.898       .  S
O43         Ni50   1.901       .  S
O44         Ni45   1.941       .  S
Ni45         O49   1.916       .  S
Ni45         O47   1.925       .  S
O46         Ni51   1.943       .  S
C48          O49   1.273       .  A
C48        C3657   1.486       .  S
O53         Ni59   1.948       .  S
O53          C74   1.277       .  A
O54         Ni77   1.904       .  S
O54          C63   1.266       .  A
O55         Ni59   1.909       .  S
O55         Ni77   1.905       .  S
O55         Ni71   1.919       .  S
O55          H78   0.966       .  S
C56          O73   1.280       .  A
C56          O65   1.278       .  A
C56        C3573   1.478       .  S
O57         Ni76   1.943       .  S
O57          C63   1.276       .  A
O58         Ni76   1.900       .  S
O58          C60   1.270       .  A
Ni59         O62   1.934       .  S
Ni59         O64   1.913       .  S
C60          O70   1.276       .  A
C60        C3545   1.481       .  S
O61         Ni77   1.914       .  S
O61          C67   1.272       .  A
O62          C67   1.280       .  A
C63        C3610   1.486       .  S
O64          C66   1.269       .  A
O65         Ni76   1.935       .  S
C66          O72   1.268       .  A
C66        C3629   1.464       .  S
C67        C3517   1.492       .  S
H68          O69   0.967       .  S
O69         Ni77   1.898       .  S
O69         Ni71   1.903       .  S
O69         Ni76   1.896       .  S
O70         Ni71   1.947       .  S
Ni71         O75   1.922       .  S
Ni71         O73   1.925       .  S
O72         Ni77   1.908       .  S
C74          O75   1.276       .  A
C74        C3797   1.501   1_556  S
O79         Ni85   1.931       .  S
O79         C100   1.273       .  A
O80        Ni103   1.924       .  S
O80          C89   1.272       .  A
O81         Ni85   1.906       .  S
O81        Ni103   1.907       .  S
O81         Ni97   1.925       .  S
O81         H104   0.966       .  S
C82          O99   1.282       .  A
C82          O91   1.276       .  A
C82        C3769   1.479       .  S
O83        Ni102   1.917       .  S
O83          C89   1.265       .  A
O84        Ni102   1.893       .  S
O84          C86   1.264       .  A
Ni85         O88   1.934       .  S
Ni85         O90   1.911       .  S
C86          O96   1.278       .  A
C86        C3461   1.494       .  S
O87        Ni103   1.908       .  S
O87          C93   1.275       .  A
O88          C93   1.277       .  A
C89        C3601   1.491       .  S
O90          C92   1.270       .  A
O91        Ni102   1.912       .  S
C92          O98   1.276       .  A
C92        C3489   1.489       .  S
C93        C3433   1.487       .  S
H94          O95   0.967       .  S
O95        Ni103   1.901       .  S
O95         Ni97   1.903       .  S
O95        Ni102   1.899       .  S
O96         Ni97   1.948       .  S
Ni97        O101   1.921       .  S
Ni97         O99   1.937       .  S
O98        Ni103   1.930       .  S
C100        O101   1.275       .  A
C100       C3414   1.493       .  S
O105       Ni111   1.933       .  S
O105        C126   1.275       .  A
O106       Ni129   1.896       .  S
O106        C115   1.266   1_556  A
O107       Ni111   1.912       .  S
O107       Ni129   1.913       .  S
O107       Ni123   1.929       .  S
O107        H130   0.966       .  S
C108        O125   1.278       .  A
C108        O117   1.279       .  A
C108       C3582   1.483   1_455  S
O109       Ni128   1.939   1_554  S
O109        C115   1.272       .  A
O110       Ni128   1.904       .  S
O110        C112   1.268       .  A
Ni111       O114   1.936       .  S
Ni111       O116   1.905       .  S
C112        O122   1.272       .  A
C112       C3321   1.491   1_455  S
O113       Ni129   1.909       .  S
O113        C119   1.269       .  A
O114        C119   1.276       .  A
C115       C3349   1.480       .  S
O116        C118   1.270       .  A
O117       Ni128   1.930       .  S
C118        O124   1.276       .  A
C118       C3377   1.497       .  S
C119       C3293   1.479       .  S
H120        O121   0.970       .  S
O121       Ni129   1.896       .  S
O121       Ni123   1.904       .  S
O121       Ni128   1.904       .  S
O122       Ni123   1.941       .  S
Ni123       O127   1.911       .  S
Ni123       O125   1.924       .  S
O124       Ni129   1.946       .  S
C126        O127   1.268       .  A
C126       C3666   1.494       .  S
O131       Ni137   1.931       .  S
O131        C152   1.275       .  A
O132       Ni155   1.920       .  S
O132        C141   1.269       .  A
O133       Ni137   1.905       .  S
O133       Ni155   1.904       .  S
O133       Ni149   1.931       .  S
O133        H156   0.961       .  S
C134        O151   1.285       .  A
C134        O143   1.278       .  A
C134       C3918   1.476       .  S
O135       Ni154   1.927       .  S
O135        C141   1.272       .  A
O136       Ni154   1.902       .  S
O136        C138   1.268       .  A
Ni137       O140   1.937       .  S
Ni137       O142   1.919       .  S
C138        O148   1.274       .  A
C138       C3237   1.486       .  S
O139       Ni155   1.911       .  S
O139        C145   1.275       .  A
O140        C145   1.277       .  A
C141       C3358   1.493       .  S
O142        C144   1.271       .  A
O143       Ni154   1.928       .  S
C144        O150   1.275       .  A
C144       C3265   1.492       .  S
C145       C3218   1.496       .  S
H146        O147   0.972       .  S
O147       Ni155   1.902       .  S
O147       Ni149   1.894       .  S
O147       Ni154   1.892       .  S
O148       Ni149   1.941       .  S
Ni149       O153   1.918       .  S
Ni149       O151   1.937       .  S
O150       Ni155   1.927       .  S
C152        O153   1.275       .  A
C152       C3405   1.487       .  S
O157       Ni163   1.926       .  S
O157        C178   1.271       .  A
O158       Ni181   1.932       .  S
O158        C167   1.278       .  A
O159       Ni163   1.897       .  S
O159       Ni181   1.899       .  S
O159       Ni175   1.899       .  S
O159        H182   0.967       .  S
C160        O177   1.275       .  A
C160        O169   1.280       .  A
C160       C3106   1.500       .  S
O161       Ni180   1.932       .  S
O161        C167   1.278       .  A
O162       Ni180   1.923       .  S
O162        C164   1.271       .  A
Ni163       O166   1.921       .  S
Ni163       O168   1.901       .  S
C164        O174   1.273       .  A
C164       C3190   1.493       .  S
O165       Ni181   1.926       .  S
O165        C171   1.284       .  A
O166        C171   1.277       .  A
C167       C3069   1.503       .  S
O168        C170   1.266       .  A
O169       Ni180   1.944       .  S
C170        O176   1.277       .  A
C170       C3442   1.492       .  S
C171       C3125   1.483       .  S
H172        O173   0.967       .  S
O173       Ni181   1.926       .  S
O173       Ni175   1.899       .  S
O173       Ni180   1.900       .  S
O174       Ni175   1.926       .  S
Ni175       O179   1.908       .  S
Ni175       O177   1.911       .  S
O176       Ni181   1.941       .  S
C178        O179   1.265       .  A
C178       C3153   1.478       .  S
O183       Ni189   1.937       .  S
O183        C204   1.276       .  A
O184       Ni207   1.915       .  S
O184        C193   1.271       .  A
O185       Ni189   1.888       .  S
O185       Ni207   1.899       .  S
O185       Ni201   1.894       .  S
O185        H208   0.976       .  S
C186        O203   1.272       .  A
C186        O195   1.277       .  A
C186       C2957   1.482       .  S
O187       Ni206   1.927       .  S
O187        C193   1.275       .  A
O188       Ni206   1.918       .  S
O188        C190   1.272       .  A
Ni189       O192   1.931       .  S
Ni189       O194   1.914       .  S
C190        O200   1.276       .  A
C190       C3013   1.496       .  S
O191       Ni207   1.926       .  S
O191        C197   1.281       .  A
O192        C197   1.281       .  A
C193       C2938   1.492       .  S
O194        C196   1.269       .  A
O195       Ni206   1.936       .  S
C196        O202   1.273       .  A
C196       C2985   1.493   1_455  S
C197       C3041   1.483   1_455  S
H198        O199   0.960       .  S
O199       Ni207   1.926       .  S
O199       Ni201   1.905       .  S
O199       Ni206   1.897       .  S
O200       Ni201   1.937       .  S
Ni201       O205   1.914       .  S
Ni201       O203   1.907       .  S
O202       Ni207   1.945       .  S
C204        O205   1.269       .  A
C204       C3162   1.491       .  S
O209       Ni215   1.933       .  S
O209        C230   1.276       .  A
O210       Ni233   1.911       .  S
O210        C219   1.272       .  A
O211       Ni215   1.890       .  S
O211       Ni233   1.895       .  S
O211       Ni227   1.900       .  S
O211        H234   0.950       .  S
C212        O229   1.275       .  A
C212        O221   1.279       .  A
C212       C2845   1.495       .  S
O213       Ni232   1.931       .  S
O213        C219   1.274       .  A
O214       Ni232   1.910       .  S
O214        C216   1.270       .  A
Ni215       O218   1.927       .  S
Ni215       O220   1.903       .  S
C216        O226   1.270       .  A
C216       C2873   1.485       .  S
O217       Ni233   1.924       .  S
O217        C223   1.281       .  A
O218        C223   1.278       .  A
C219       C2817   1.484       .  S
O220        C222   1.269       .  A
O221       Ni232   1.933       .  S
C222        O228   1.274       .  A
C222       C3526   1.488       .  S
C223       C3134   1.474       .  S
H224        O225   0.979       .  S
O225       Ni233   1.919       .  S
O225       Ni227   1.898       .  S
O225       Ni232   1.897       .  S
O226       Ni227   1.924       .  S
Ni227       O231   1.894       .  S
Ni227       O229   1.923       .  S
O228       Ni233   1.942       .  S
C230        O231   1.263       .  A
C230       C2901   1.479       .  S
O235       Ni241   1.932   1_556  S
O235        C256   1.274   1_556  A
O236       Ni259   1.908       .  S
O236        C245   1.274       .  A
O237       Ni241   1.893       .  S
O237       Ni259   1.890       .  S
O237       Ni253   1.898       .  S
O237        H260   0.967       .  S
C238        O255   1.274       .  A
C238        O247   1.277       .  A
C238       C2705   1.491       .  S
O239       Ni258   1.935       .  S
O239        C245   1.276       .  A
O240       Ni258   1.922       .  S
O240        C242   1.270       .  A
Ni241       O244   1.932       .  S
Ni241       O246   1.908       .  S
C242        O252   1.270       .  A
C242       C2761   1.473       .  S
O243       Ni259   1.943       .  S
O243        C249   1.285       .  A
O244        C249   1.280       .  A
C245       C2929   1.487       .  S
O246        C248   1.267       .  A
O247       Ni258   1.933       .  S
C248        O254   1.276       .  A
C248       C2742   1.496       .  S
C249       C2798   1.493       .  S
H250        O251   0.967       .  S
O251       Ni259   1.927       .  S
O251       Ni253   1.893       .  S
O251       Ni258   1.909       .  S
O252       Ni253   1.917       .  S
Ni253       O257   1.894       .  S
Ni253       O255   1.912       .  S
O254       Ni259   1.943       .  S
C256        O257   1.263       .  A
C256       C2910   1.468   1_554  S
O261       Ni267   1.927       .  S
O261        C282   1.271       .  A
O262       Ni285   1.928       .  S
O262        C271   1.277       .  A
O263       Ni267   1.898       .  S
O263       Ni285   1.909       .  S
O263       Ni279   1.905       .  S
O263        H286   0.967       .  S
C264        O281   1.273       .  A
C264        O273   1.275       .  A
C264       C3246   1.492       .  S
O265       Ni284   1.933       .  S
O265        C271   1.274       .  A
O266       Ni284   1.904       .  S
O266        C268   1.271       .  A
Ni267       O270   1.923       .  S
Ni267       O272   1.902       .  S
C268        O278   1.276       .  A
C268       C3638   1.488       .  S
O269       Ni285   1.950       .  S
O269        C275   1.285       .  A
O270        C275   1.278       .  A
C271       C3078   1.491   1_554  S
O272        C274   1.266       .  A
O273       Ni284   1.934       .  S
C274        O280   1.277       .  A
C274       C2658   1.490       .  S
C275       C2789   1.501       .  S
H276        O277   0.967       .  S
O277       Ni285   1.936       .  S
O277       Ni279   1.914       .  S
O277       Ni284   1.911       .  S
O278       Ni279   1.932       .  S
Ni279       O283   1.925       .  S
Ni279       O281   1.912       .  S
O280       Ni285   1.944       .  S
C282        O283   1.270       .  A
C282       C2677   1.487       .  S
O287       Ni293   1.929       .  S
O287        C308   1.274       .  A
O288       Ni311   1.908       .  S
O288        C297   1.271       .  A
O289       Ni293   1.887       .  S
O289       Ni311   1.894       .  S
O289       Ni305   1.900       .  S
O289        H312   0.967       .  S
C290        O307   1.275       .  A
C290        O299   1.281       .  A
C290       C3853   1.500       .  S
O291       Ni310   1.935       .  S
O291        C297   1.274       .  A
O292       Ni310   1.909       .  S
O292        C294   1.267       .  A
Ni293       O296   1.923       .  S
Ni293       O298   1.908       .  S
C294        O304   1.274       .  A
C294       C3498   1.487       .  S
O295       Ni311   1.940       .  S
O295        C301   1.284       .  A
O296        C301   1.279       .  A
C297       C2826   1.469       .  S
O298        C300   1.270       .  A
O299       Ni310   1.937       .  S
C300        O306   1.277       .  A
C300       C2621   1.498       .  S
C301       C3050   1.490       .  S
H302        O303   0.966       .  S
O303       Ni311   1.929       .  S
O303       Ni305   1.899       .  S
O303       Ni310   1.900       .  S
O304       Ni305   1.925       .  S
Ni305       O309   1.904       .  S
Ni305       O307   1.926       .  S
O306       Ni311   1.954       .  S
C308        O309   1.266       .  A
C308       C2686   1.478       .  S
O313       Ni319   1.934       .  S
O313        C334   1.275       .  A
O314       Ni337   1.903       .  S
O314        C323   1.266       .  A
O315       Ni319   1.916       .  S
O315       Ni337   1.915       .  S
O315       Ni331   1.942       .  S
O315        H338   0.967       .  S
C316        O333   1.287       .  A
C316        O325   1.278       .  A
C316       C2602   1.481       .  S
O317       Ni336   1.925       .  S
O317        C323   1.269       .  A
O318       Ni336   1.906       .  S
O318        C320   1.267       .  A
Ni319       O322   1.940       .  S
Ni319       O324   1.911       .  S
C320        O330   1.275       .  A
C320       C2537   1.488       .  S
O321       Ni337   1.901       .  S
O321        C327   1.265       .  A
O322        C327   1.277       .  A
C323       C2565   1.477       .  S
O324        C326   1.270       .  A
O325       Ni336   1.918       .  S
C326        O332   1.277       .  A
C326       C2770   1.493       .  S
C327       C2630   1.499       .  S
H328        O329   0.967       .  S
O329       Ni337   1.890       .  S
O329       Ni331   1.893       .  S
O329       Ni336   1.898       .  S
O330       Ni331   1.938       .  S
Ni331       O335   1.923       .  S
Ni331       O333   1.944       .  S
O332       Ni337   1.928       .  S
C334        O335   1.277       .  A
C334       C2509   1.494       .  S
O339       Ni345   1.937       .  S
O339        C360   1.275       .  A
O340       Ni363   1.922       .  S
O340        C349   1.271       .  A
O341       Ni345   1.907       .  S
O341       Ni363   1.915       .  S
O341       Ni357   1.927       .  S
O341        H364   0.967       .  S
C342        O359   1.278       .  A
C342        O351   1.280       .  A
C342       C2481   1.483       .  S
O343       Ni362   1.931       .  S
O343        C349   1.274       .  A
O344       Ni362   1.908       .  S
O344        C346   1.266       .  A
Ni345       O348   1.935       .  S
Ni345       O350   1.898       .  S
C346        O356   1.275       .  A
C346       C2453   1.496       .  S
O347       Ni363   1.922       .  S
O347        C353   1.275       .  A
O348        C353   1.277       .  A
C349       C2574   1.495       .  S
O350        C352   1.269       .  A
O351       Ni362   1.944       .  S
C352        O358   1.280       .  A
C352       C2882   1.493       .  S
C353       C2994   1.481       .  S
H354        O355   0.967       .  S
O355       Ni363   1.909       .  S
O355       Ni357   1.897       .  S
O355       Ni362   1.906       .  S
O356       Ni357   1.944       .  S
Ni357       O361   1.913       .  S
Ni357       O359   1.917       .  S
O358       Ni363   1.949       .  S
C360        O361   1.269       .  A
C360       C2434   1.490       .  S
O365       Ni371   1.932       .  S
O365        C386   1.276       .  A
O366       Ni389   1.906       .  S
O366        C375   1.269   1_556  A
O367       Ni371   1.900       .  S
O367       Ni389   1.912       .  S
O367       Ni383   1.932       .  S
O367        H390   0.966       .  S
C368        O385   1.282       .  A
C368        O377   1.279       .  A
C368       C2341   1.487       .  S
O369       Ni388   1.933   1_554  S
O369        C375   1.271       .  A
O370       Ni388   1.902       .  S
O370        C372   1.268       .  A
Ni371       O374   1.936       .  S
Ni371       O376   1.907       .  S
C372        O382   1.273       .  A
C372       C2714   1.495       .  S
O373       Ni389   1.921       .  S
O373        C379   1.272       .  A
O374        C379   1.278       .  A
C375       C2369   1.485       .  S
O376        C378   1.271       .  A
O377       Ni388   1.920       .  S
C378        O384   1.277       .  A
C378       C2397   1.494       .  S
C379       C2313   1.503       .  S
H380        O381   0.967       .  S
O381       Ni389   1.895       .  S
O381       Ni383   1.903       .  S
O381       Ni388   1.892       .  S
O382       Ni383   1.944       .  S
Ni383       O387   1.920       .  S
Ni383       O385   1.934       .  S
O384       Ni389   1.943       .  S
C386        O387   1.272       .  A
C386       C2425   1.496       .  S
O391       Ni397   1.928       .  S
O391        C412   1.272       .  A
O392       Ni415   1.915       .  S
O392        C401   1.267       .  A
O393       Ni397   1.910       .  S
O393       Ni415   1.912       .  S
O393       Ni409   1.935       .  S
O393        H416   0.966       .  S
C394        O411   1.288       .  A
C394        O403   1.278       .  A
C394       C2593   1.501       .  S
O395       Ni414   1.934       .  S
O395        C401   1.273       .  A
O396       Ni414   1.907       .  S
O396        C398   1.270       .  A
Ni397       O400   1.933       .  S
Ni397       O402   1.906       .  S
C398        O408   1.274       .  A
C398       C2238   1.500       .  S
O399       Ni415   1.911       .  S
O399        C405   1.270       .  A
O400        C405   1.276       .  A
C401       C2378   1.489       .  S
O402        C404   1.269       .  A
O403       Ni414   1.919       .  S
C404        O410   1.276       .  A
C404       C2294   1.487       .  S
C405       C2257   1.479       .  S
H406        O407   0.968       .  S
O407       Ni415   1.896       .  S
O407       Ni409   1.905       .  S
O407       Ni414   1.892       .  S
O408       Ni409   1.946       .  S
Ni409       O413   1.921       .  S
Ni409       O411   1.954       .  S
O410       Ni415   1.932       .  S
C412        O413   1.277       .  A
C412       C2201   1.496       .  S
O417       Ni423   1.931       .  S
O417        C438   1.275       .  A
O418       Ni441   1.888       .  S
O418        C427   1.266       .  A
O419       Ni423   1.900       .  S
O419       Ni441   1.896       .  S
O419       Ni435   1.923       .  S
O419        H442   0.966       .  S
C420        O437   1.283       .  A
C420        O429   1.280       .  A
C420       C2490   1.493       .  S
O421       Ni440   1.938       .  S
O421        C427   1.273       .  A
O422       Ni440   1.910       .  S
O422        C424   1.268       .  A
Ni423       O426   1.938       .  S
Ni423       O428   1.915       .  S
C424        O434   1.280       .  A
C424       C2117   1.501       .  S
O425       Ni441   1.912       .  S
O425        C431   1.273       .  A
O426        C431   1.278       .  A
C427       C2182   1.479       .  S
O428        C430   1.272       .  A
O429       Ni440   1.926       .  S
C430        O436   1.276       .  A
C430       C2154   1.500       .  S
C431       C2089   1.494       .  S
H432        O433   0.968       .  S
O433       Ni441   1.896       .  S
O433       Ni435   1.900       .  S
O433       Ni440   1.901       .  S
O434       Ni435   1.949       .  S
Ni435       O439   1.920       .  S
Ni435       O437   1.936       .  S
O436       Ni441   1.945       .  S
C438        O439   1.277       .  A
C438       C2210   1.490       .  S
O443       Ni449   1.935       .  S
O443        C464   1.277       .  A
O444       Ni467   1.900       .  S
O444        C453   1.265       .  A
O445       Ni449   1.905       .  S
O445       Ni467   1.897       .  S
O445       Ni461   1.926       .  S
O445        H468   0.965       .  S
C446        O463   1.284       .  A
C446        O455   1.280       .  A
C446       C2350   1.484       .  S
O447       Ni466   1.934       .  S
O447        C453   1.274       .  A
O448       Ni466   1.901       .  S
O448        C450   1.266       .  A
Ni449       O452   1.939       .  S
Ni449       O454   1.926       .  S
C450        O460   1.280       .  A
C450       C2854   1.497       .  S
O451       Ni467   1.909       .  S
O451        C457   1.273       .  A
O452        C457   1.278       .  A
C453       C2173   1.485       .  S
O454        C456   1.272       .  A
O455       Ni466   1.933       .  S
C456        O462   1.272       .  A
C456       C2061   1.488       .  S
C457       C2033   1.490       .  S
H458        O459   0.969       .  S
O459       Ni467   1.898       .  S
O459       Ni461   1.895       .  S
O459       Ni466   1.894       .  S
O460       Ni461   1.952       .  S
Ni461       O465   1.927       .  S
Ni461       O463   1.932       .  S
O462       Ni467   1.927       .  S
C464        O465   1.279       .  A
C464       C2518   1.495   1_556  S
O469       Ni475   1.934       .  S
O469        C490   1.274       .  A
O470       Ni493   1.914       .  S
O470        C479   1.273       .  A
O471       Ni475   1.899       .  S
O471       Ni493   1.896       .  S
O471       Ni487   1.900       .  S
O471        H494   0.972       .  S
C472        O489   1.271       .  A
C472        O481   1.277       .  A
C472       C2546   1.488       .  S
O473       Ni492   1.934       .  S
O473        C479   1.274       .  A
O474       Ni492   1.922       .  S
O474        C476   1.271       .  A
Ni475       O478   1.926       .  S
Ni475       O480   1.909       .  S
C476        O486   1.271       .  A
C476       C2145   1.487       .  S
O477       Ni493   1.933       .  S
O477        C483   1.281       .  A
O478        C483   1.279       .  A
C479       C1921   1.489       .  S
O480        C482   1.269       .  A
O481       Ni492   1.938       .  S
C482        O488   1.281       .  A
C482       C1949   1.507       .  S
C483       C2014   1.484       .  S
H484        O485   0.961       .  S
O485       Ni493   1.929       .  S
O485       Ni487   1.911       .  S
O485       Ni492   1.917       .  S
O486       Ni487   1.924       .  S
Ni487       O491   1.893       .  S
Ni487       O489   1.914       .  S
O488       Ni493   1.957       .  S
C490        O491   1.262       .  A
C490       C1977   1.475       .  S
O495       Ni501   1.927       .  S
O495        C516   1.273       .  A
O496       Ni519   1.911       .  S
O496        C505   1.269       .  A
O497       Ni501   1.899       .  S
O497       Ni519   1.897       .  S
O497       Ni513   1.901       .  S
O497        H520   0.968       .  S
C498        O515   1.274       .  A
C498        O507   1.278       .  A
C498       C2229   1.500       .  S
O499       Ni518   1.937       .  S
O499        C505   1.277       .  A
O500       Ni518   1.910       .  S
O500        C502   1.271       .  A
Ni501       O504   1.932       .  S
Ni501       O506   1.907       .  S
C502        O512   1.278       .  A
C502       C2070   1.499       .  S
O503       Ni519   1.929       .  S
O503        C509   1.279       .  A
O504        C509   1.280       .  A
C505       C1874   1.494   1_554  S
O506        C508   1.265       .  A
O507       Ni518   1.942       .  S
C508        O514   1.275       .  A
C508       C3209   1.497       .  S
C509       C1893   1.483       .  S
H510        O511   0.967       .  S
O511       Ni519   1.926       .  S
O511       Ni513   1.906       .  S
O511       Ni518   1.903       .  S
O512       Ni513   1.944       .  S
Ni513       O517   1.912       .  S
Ni513       O515   1.910       .  S
O514       Ni519   1.941       .  S
C516        O517   1.269       .  A
C516       C1986   1.484       .  S
O521       Ni527   1.934       .  S
O521        C542   1.271       .  A
O522       Ni545   1.929       .  S
O522        C531   1.274       .  A
O523       Ni527   1.903       .  S
O523       Ni545   1.902       .  S
O523       Ni539   1.896       .  S
O523        H546   0.967       .  S
C524        O541   1.270       .  A
C524        O533   1.279       .  A
C524       C3713   1.486       .  S
O525       Ni544   1.939       .  S
O525        C531   1.277       .  A
O526       Ni544   1.906       .  S
O526        C528   1.271       .  A
Ni527       O530   1.927       .  S
Ni527       O532   1.906       .  S
C528        O538   1.276       .  A
C528       C3274   1.491       .  S
O529       Ni545   1.931       .  S
O529        C535   1.282       .  A
O530        C535   1.279       .  A
C531       C1781   1.494       .  S
O532        C534   1.267       .  A
O533       Ni544   1.937       .  S
C534        O540   1.276       .  A
C534       C1818   1.495       .  S
C535       C2005   1.481       .  S
H536        O537   0.967       .  S
O537       Ni545   1.926       .  S
O537       Ni539   1.909       .  S
O537       Ni544   1.901       .  S
O538       Ni539   1.941       .  S
Ni539       O543   1.897       .  S
Ni539       O541   1.907       .  S
O540       Ni545   1.940       .  S
C542        O543   1.267       .  A
C542       C1837   1.479       .  S
O547       Ni553   1.930       .  S
O547        C568   1.269       .  A
O548       Ni571   1.918       .  S
O548        C557   1.276       .  A
O549       Ni553   1.895       .  S
O549       Ni571   1.899       .  S
O549       Ni565   1.892       .  S
O549        H572   0.969       .  S
C550        O567   1.269       .  A
C550        O559   1.278       .  A
C550       C3470   1.497       .  S
O551       Ni570   1.935       .  S
O551        C557   1.276       .  A
O552       Ni570   1.916       .  S
O552        C554   1.272       .  A
Ni553       O556   1.915       .  S
Ni553       O558   1.902       .  S
C554        O564   1.274       .  A
C554       C3386   1.491       .  S
O555       Ni571   1.944       .  S
O555        C561   1.285       .  A
O556        C561   1.279       .  A
C557       C1865   1.492       .  S
O558        C560   1.266       .  A
O559       Ni570   1.937       .  S
C560        O566   1.277       .  A
C560       C2098   1.495       .  S
C561       C1762   1.490       .  S
H562        O563   0.964       .  S
O563       Ni571   1.929       .  S
O563       Ni565   1.905       .  S
O563       Ni570   1.907       .  S
O564       Ni565   1.933       .  S
Ni565       O569   1.895       .  S
Ni565       O567   1.908       .  S
O566       Ni571   1.943       .  S
C568        O569   1.265       .  A
C568       C1846   1.476       .  S
O573       Ni579   1.931   1_556  S
O573        C594   1.273   1_556  A
O574       Ni597   1.927       .  S
O574        C583   1.274       .  A
O575       Ni579   1.891       .  S
O575       Ni597   1.895       .  S
O575       Ni591   1.888       .  S
O575        H598   0.969       .  S
C576        O593   1.270       .  A
C576        O585   1.280       .  A
C576       C1669   1.500       .  S
O577       Ni596   1.943       .  S
O577        C583   1.278       .  A
O578       Ni596   1.918       .  S
O578        C580   1.272       .  A
Ni579       O582   1.928       .  S
Ni579       O584   1.910       .  S
C580        O590   1.270       .  A
C580       C1734   1.484       .  S
O581       Ni597   1.935       .  S
O581        C587   1.285       .  A
O582        C587   1.281       .  A
C583       C1790   1.488       .  S
O584        C586   1.266       .  A
O585       Ni596   1.949       .  S
C586        O592   1.275       .  A
C586       C3302   1.486       .  S
C587       C1902   1.489       .  S
H588        O589   0.963       .  S
O589       Ni597   1.930       .  S
O589       Ni591   1.908       .  S
O589       Ni596   1.906       .  S
O590       Ni591   1.923       .  S
Ni591       O595   1.894       .  S
Ni591       O593   1.912       .  S
O592       Ni597   1.942       .  S
C594        O595   1.263       .  A
C594       C1706   1.474   1_554  S
O599       Ni605   1.930       .  S
O599        C620   1.274       .  A
O600       Ni623   1.925       .  S
O600        C609   1.275       .  A
O601       Ni605   1.889       .  S
O601       Ni623   1.897       .  S
O601       Ni617   1.898       .  S
O601        H624   0.967       .  S
C602        O619   1.276       .  A
C602        O611   1.278       .  A
C602       C1613   1.500       .  S
O603       Ni622   1.929       .  S
O603        C609   1.275       .  A
O604       Ni622   1.914       .  S
O604        C606   1.270       .  A
Ni605       O608   1.929       .  S
Ni605       O610   1.901       .  S
C606        O616   1.267       .  A
C606       C1650   1.479       .  S
O607       Ni623   1.928       .  S
O607        C613   1.281       .  A
O608        C613   1.279       .  A
C609       C1930   1.497       .  S
O610        C612   1.266       .  A
O611       Ni622   1.937       .  S
C612        O618   1.280       .  A
C612       C2042   1.498       .  S
C613       C1753   1.480       .  S
H614        O615   0.966       .  S
O615       Ni623   1.926       .  S
O615       Ni617   1.899       .  S
O615       Ni622   1.902       .  S
O616       Ni617   1.919       .  S
Ni617       O621   1.898       .  S
Ni617       O619   1.922       .  S
O618       Ni623   1.953       .  S
C620        O621   1.263       .  A
C620       C1697   1.479       .  S
O625       Ni631   1.942       .  S
O625        C646   1.274       .  A
O626       Ni649   1.921       .  S
O626        C635   1.275       .  A
O627       Ni631   1.899       .  S
O627       Ni649   1.905       .  S
O627       Ni643   1.892       .  S
O627        H650   0.974       .  S
C628        O645   1.272       .  A
C628        O637   1.275       .  A
C628       C1501   1.488       .  S
O629       Ni648   1.929       .  S
O629        C635   1.274       .  A
O630       Ni648   1.915       .  S
O630        C632   1.273       .  A
Ni631       O634   1.938       .  S
Ni631       O636   1.907       .  S
C632        O642   1.272       .  A
C632       C1594   1.490       .  S
O633       Ni649   1.922       .  S
O633        C639   1.279       .  A
O634        C639   1.281       .  A
C635       C1473   1.486   1_554  S
O636        C638   1.266       .  A
O637       Ni648   1.930       .  S
C638        O644   1.278       .  A
C638       C2266   1.481       .  S
C639       C1566   1.488       .  S
H640        O641   0.961       .  S
O641       Ni649   1.916       .  S
O641       Ni643   1.902       .  S
O641       Ni648   1.904       .  S
O642       Ni643   1.931       .  S
Ni643       O647   1.896       .  S
Ni643       O645   1.905       .  S
O644       Ni649   1.950       .  S
C646        O647   1.267       .  A
C646       C1529   1.481       .  S
O651       Ni657   1.939       .  S
O651        C672   1.274       .  A
O652       Ni675   1.903       .  S
O652        C661   1.269       .  A
O653       Ni657   1.900       .  S
O653       Ni675   1.898       .  S
O653       Ni669   1.896       .  S
O653        H676   0.972       .  S
C654        O671   1.272       .  A
C654        O663   1.274       .  A
C654       C1398   1.488       .  S
O655       Ni674   1.925       .  S
O655        C661   1.272       .  A
O656       Ni674   1.914       .  S
O656        C658   1.271       .  A
Ni657       O660   1.930       .  S
Ni657       O662   1.907       .  S
C658        O668   1.276       .  A
C658       C1426   1.489       .  S
O659       Ni675   1.931       .  S
O659        C665   1.280       .  A
O660        C665   1.279       .  A
C661       C1361   1.471       .  S
O662        C664   1.269       .  A
O663       Ni674   1.927       .  S
C664        O670   1.273       .  A
C664       C3825   1.496       .  S
C665       C1454   1.486       .  S
H666        O667   0.962       .  S
O667       Ni675   1.927       .  S
O667       Ni669   1.903       .  S
O667       Ni674   1.914       .  S
O668       Ni669   1.934       .  S
Ni669       O673   1.901       .  S
Ni669       O671   1.906       .  S
O670       Ni675   1.941       .  S
C672        O673   1.268       .  A
C672       C1538   1.485       .  S
O677       Ni683   1.932   1_556  S
O677        C698   1.274       .  A
O678       Ni701   1.924       .  S
O678        C687   1.275       .  A
O679       Ni683   1.892       .  S
O679       Ni701   1.909       .  S
O679       Ni695   1.904       .  S
O679        H702   0.970       .  S
C680        O697   1.276       .  A
C680        O689   1.276       .  A
C680       C3330   1.484       .  S
O681       Ni700   1.930       .  S
O681        C687   1.273       .  A
O682       Ni700   1.913       .  S
O682        C684   1.271       .  A
Ni683       O686   1.927       .  S
Ni683       O688   1.905       .  S
C684        O694   1.277       .  A
C684       C3946   1.489       .  S
O685       Ni701   1.931       .  S
O685        C691   1.281       .  A
O686        C691   1.279       .  A
C687       C1314   1.496       .  S
O688        C690   1.269       .  A
O689       Ni700   1.928       .  S
C690        O696   1.278       .  A
C690       C2322   1.505   1_545  S
C691       C1557   1.487   1_545  S
H692        O693   0.966       .  S
O693       Ni701   1.922       .  S
O693       Ni695   1.913       .  S
O693       Ni700   1.900       .  S
O694       Ni695   1.940       .  S
Ni695       O699   1.931       .  S
Ni695       O697   1.916       .  S
O696       Ni701   1.959       .  S
C698        O699   1.272   1_556  A
C698       C1333   1.502       .  S
O703       Ni709   1.940       .  S
O703        C724   1.276       .  A
O704       Ni727   1.910       .  S
O704        C713   1.271       .  A
O705       Ni709   1.892       .  S
O705       Ni727   1.892       .  S
O705       Ni721   1.894       .  S
O705        H728   0.977       .  S
C706        O723   1.275       .  A
C706        O715   1.277       .  A
C706       C3554   1.495       .  S
O707       Ni726   1.925       .  S
O707        C713   1.275       .  A
O708       Ni726   1.919       .  S
O708        C710   1.271       .  A
Ni709       O712   1.935       .  S
Ni709       O714   1.910       .  S
C710        O720   1.272       .  A
C710       C3741   1.491       .  S
O711       Ni727   1.923       .  S
O711        C717   1.281       .  A
O712        C717   1.279       .  A
C713       C1370   1.482       .  S
O714        C716   1.270       .  A
O715       Ni726   1.935       .  S
C716        O722   1.273       .  A
C716       C1249   1.498       .  S
C717       C1286   1.474       .  S
H718        O719   0.961       .  S
O719       Ni727   1.925       .  S
O719       Ni721   1.898       .  S
O719       Ni726   1.902       .  S
O720       Ni721   1.929       .  S
Ni721       O725   1.902       .  S
Ni721       O723   1.915       .  S
O722       Ni727   1.942       .  S
C724        O725   1.266       .  A
C724       C1342   1.477       .  S
O729       Ni735   1.927       .  S
O729        C750   1.271       .  A
O730       Ni753   1.920       .  S
O730        C739   1.274       .  A
O731       Ni735   1.896       .  S
O731       Ni753   1.894       .  S
O731       Ni747   1.891       .  S
O731        H754   0.968       .  S
C732        O749   1.266       .  A
C732        O741   1.278       .  A
C732       C2462   1.492       .  S
O733       Ni752   1.939       .  S
O733        C739   1.277       .  A
O734       Ni752   1.912       .  S
O734        C736   1.270       .  A
Ni735       O738   1.932       .  S
Ni735       O740   1.903       .  S
C736        O746   1.272       .  A
C736       C2285   1.478       .  S
O737       Ni753   1.929       .  S
O737        C743   1.281       .  A
O738        C743   1.279       .  A
C739       C1305   1.491       .  S
O740        C742   1.265       .  A
O741       Ni752   1.944       .  S
C742        O748   1.277       .  A
C742       C3685   1.480   1_565  S
C743       C1445   1.482   1_565  S
H744        O745   0.964       .  S
O745       Ni753   1.939       .  S
O745       Ni747   1.911       .  S
O745       Ni752   1.915       .  S
O746       Ni747   1.915       .  S
Ni747       O751   1.897       .  S
Ni747       O749   1.900       .  S
O748       Ni753   1.951       .  S
C750        O751   1.263       .  A
C750       C1230   1.473       .  S
O755       Ni761   1.930       .  S
O755        C776   1.273       .  A
O756       Ni779   1.925       .  S
O756        C765   1.274       .  A
O757       Ni761   1.902       .  S
O757       Ni779   1.900       .  S
O757       Ni773   1.904       .  S
O757        H780   0.969       .  S
C758        O775   1.272       .  A
C758        O767   1.279       .  A
C758       C2126   1.503       .  S
O759       Ni778   1.929       .  S
O759        C765   1.276       .  A
O760       Ni778   1.916       .  S
O760        C762   1.270       .  A
Ni761       O764   1.929       .  S
Ni761       O766   1.903       .  S
C762        O772   1.273       .  A
C762       C2406   1.488       .  S
O763       Ni779   1.931       .  S
O763        C769   1.282       .  A
O764        C769   1.277       .  A
C765       C1482   1.498       .  S
O766        C768   1.267       .  A
O767       Ni778   1.939       .  S
C768        O774   1.277       .  A
C768       C1202   1.493       .  S
C769       C1277   1.484       .  S
H770        O771   0.964       .  S
O771       Ni779   1.930       .  S
O771       Ni773   1.904       .  S
O771       Ni778   1.905       .  S
O772       Ni773   1.927       .  S
Ni773       O777   1.897       .  S
Ni773       O775   1.918       .  S
O774       Ni779   1.942       .  S
C776        O777   1.263       .  A
C776       C1221   1.479       .  S
O781       Ni787   1.935       .  S
O781        C802   1.277       .  A
O782       Ni805   1.908       .  S
O782        C791   1.268   1_556  A
O783       Ni787   1.899       .  S
O783       Ni805   1.900       .  S
O783       Ni799   1.925       .  S
O783        H806   0.963       .  S
C784        O801   1.282       .  A
C784        O793   1.282       .  A
C784       C1146   1.489   1_565  S
O785       Ni804   1.934   1_554  S
O785        C791   1.276       .  A
O786       Ni804   1.913       .  S
O786        C788   1.268       .  A
Ni787       O790   1.942       .  S
Ni787       O792   1.917       .  S
C788        O798   1.277       .  A
C788       C1678   1.499   1_565  S
O789       Ni805   1.918       .  S
O789        C795   1.276       .  A
O790        C795   1.279       .  A
C791       C1165   1.487       .  S
O792        C794   1.272       .  A
O793       Ni804   1.942       .  S
C794        O800   1.275       .  A
C794       C3181   1.494       .  S
C795       C2733   1.500       .  S
H796        O797   0.973       .  S
O797       Ni805   1.900       .  S
O797       Ni799   1.890       .  S
O797       Ni804   1.894       .  S
O798       Ni799   1.949       .  S
Ni799       O803   1.915       .  S
Ni799       O801   1.923       .  S
O800       Ni805   1.940       .  S
C802        O803   1.273       .  A
C802       C1109   1.488       .  S
O807       Ni813   1.943       .  S
O807        C828   1.278       .  A
O808       Ni831   1.901       .  S
O808        C817   1.269       .  A
O809       Ni813   1.906       .  S
O809       Ni831   1.897       .  S
O809       Ni825   1.926       .  S
O809        H832   0.966       .  S
C810        O827   1.285       .  A
C810        O819   1.279       .  A
C810       C1081   1.489       .  S
O811       Ni830   1.932       .  S
O811        C817   1.271       .  A
O812       Ni830   1.900       .  S
O812        C814   1.268       .  A
Ni813       O816   1.943       .  S
Ni813       O818   1.918       .  S
C814        O824   1.272       .  A
C814       C1510   1.491       .  S
O815       Ni831   1.909       .  S
O815        C821   1.273       .  A
O816        C821   1.279       .  A
C817       C1174   1.484       .  S
O818        C820   1.271       .  A
O819       Ni830   1.930       .  S
C820        O826   1.276       .  A
C820       C3022   1.485       .  S
C821       C2649   1.488       .  S
H822        O823   0.968       .  S
O823       Ni831   1.898       .  S
O823       Ni825   1.891       .  S
O823       Ni830   1.894       .  S
O824       Ni825   1.937       .  S
Ni825       O829   1.904       .  S
Ni825       O827   1.933       .  S
O826       Ni831   1.933       .  S
C828        O829   1.273       .  A
C828       C1062   1.492       .  S
O833       Ni839   1.926       .  S
O833        C854   1.274       .  A
O834       Ni857   1.910       .  S
O834        C843   1.269       .  A
O835       Ni839   1.903       .  S
O835       Ni857   1.899       .  S
O835       Ni851   1.931       .  S
O835        H858   0.964       .  S
C836        O853   1.287       .  A
C836        O845   1.277       .  A
C836       C1006   1.495       .  S
O837       Ni856   1.929       .  S
O837        C843   1.270       .  A
O838       Ni856   1.902       .  S
O838        C840   1.269       .  A
Ni839       O842   1.940       .  S
Ni839       O844   1.917       .  S
C840        O850   1.276       .  A
C840       C3097   1.494       .  S
O841       Ni857   1.907       .  S
O841        C847   1.273       .  A
O842        C847   1.278       .  A
C843       C1034   1.488       .  S
O844        C846   1.270       .  A
O845       Ni856   1.915       .  S
C846        O852   1.276       .  A
C846       C1417   1.491       .  S
C847       C1193   1.495       .  S
H848        O849   0.971       .  S
O849       Ni857   1.896       .  S
O849       Ni851   1.902       .  S
O849       Ni856   1.891       .  S
O850       Ni851   1.949       .  S
Ni851       O855   1.919       .  S
Ni851       O853   1.948       .  S
O852       Ni857   1.931       .  S
C854        O855   1.277       .  A
C854       C1053   1.486       .  S
O859       Ni865   1.935       .  S
O859        C880   1.277       .  A
O860       Ni883   1.914       .  S
O860        C869   1.269       .  A
O861       Ni865   1.900       .  S
O861       Ni883   1.914       .  S
O861       Ni877   1.932       .  S
O861        H884   0.967       .  S
C862        O879   1.282       .  A
C862        O871   1.279       .  A
C862       C1137   1.489       .  S
O863       Ni882   1.940       .  S
O863        C869   1.276       .  A
O864       Ni882   1.912       .  S
O864        C866   1.270       .  A
Ni865       O868   1.938       .  S
Ni865       O870   1.908       .  S
C866        O876   1.273       .  A
C866       C1622   1.497       .  S
O867       Ni883   1.916       .  S
O867        C873   1.271       .  A
O868        C873   1.278       .  A
C869       C1025   1.492       .  S
O870        C872   1.271       .  A
O871       Ni882   1.929       .  S
C872        O878   1.278       .  A
C872       C1585   1.489       .  S
C873       C1258   1.496       .  S
H874        O875   0.967       .  S
O875       Ni883   1.901       .  S
O875       Ni877   1.906       .  S
O875       Ni882   1.895       .  S
O876       Ni877   1.944       .  S
Ni877       O881   1.920       .  S
Ni877       O879   1.937       .  S
O878       Ni883   1.941       .  S
C880        O881   1.271       .  A
C880        C978   1.496   1_556  S
O885       Ni891   1.937       .  S
O885        C906   1.277       .  A
O886       Ni909   1.922       .  S
O886        C895   1.270       .  A
O887       Ni891   1.898       .  S
O887       Ni909   1.908       .  S
O887       Ni903   1.926       .  S
O887        H910   0.967       .  S
C888        O905   1.281       .  A
C888        O897   1.280       .  A
C888        C997   1.481   1_545  S
O889       Ni908   1.930       .  S
O889        C895   1.273       .  A
O890       Ni908   1.900       .  S
O890        C892   1.266       .  A
Ni891       O894   1.939       .  S
Ni891       O896   1.911       .  S
C892        O902   1.270       .  A
C892       C2966   1.485   1_545  S
O893       Ni909   1.913       .  S
O893        C899   1.275       .  A
O894        C899   1.278       .  A
C895        C941   1.494       .  S
O896        C898   1.271       .  A
O897       Ni908   1.938       .  S
C898        O904   1.275       .  A
C898       C1641   1.486       .  S
C899       C1809   1.491       .  S
H900        O901   0.967       .  S
O901       Ni909   1.904       .  S
O901       Ni903   1.898       .  S
O901       Ni908   1.891       .  S
O902       Ni903   1.935       .  S
Ni903       O907   1.912       .  S
Ni903       O905   1.922       .  S
O904       Ni909   1.933       .  S
C906        O907   1.269       .  A
C906       C1118   1.495       .  S
O911       Ni917   1.944       .  S
O911        C932   1.278       .  A
O912       Ni935   1.899       .  S
O912        C921   1.265       .  A
O913       Ni917   1.911       .  S
O913       Ni935   1.908       .  S
O913       Ni929   1.934       .  S
O913        H936   0.965       .  S
C914        O931   1.282       .  A
C914        O923   1.277       .  A
C914       C1090   1.483       .  S
O915       Ni934   1.934       .  S
O915        C921   1.270       .  A
O916       Ni934   1.899       .  S
O916        C918   1.268       .  A
Ni917       O920   1.952       .  S
Ni917       O922   1.913       .  S
C918        O928   1.274       .  A
C918       C1389   1.486       .  S
O919       Ni935   1.908       .  S
O919        C925   1.272       .  A
O920        C925   1.280       .  A
C921        C950   1.474       .  S
O922        C924   1.272       .  A
O923       Ni934   1.925       .  S
C924        O930   1.273       .  A
C924       C1725   1.494       .  S
C925       C1958   1.502       .  S
H926        O927   0.968       .  S
O927       Ni935   1.898       .  S
O927       Ni929   1.901       .  S
O927       Ni934   1.900       .  S
O928       Ni929   1.945       .  S
Ni929       O933   1.912       .  S
Ni929       O931   1.938       .  S
O930       Ni935   1.931       .  S
C932        O933   1.271       .  A
C932        C969   1.494       .  S
C937        C938   1.399       .  A
C937        C942   1.406       .  A
C937        H947   1.084       .  S
C938        C943   1.474       .  S
C938        C939   1.403       .  A
C939        C940   1.393       .  A
C939        N944   1.429       .  S
C940        C941   1.409       .  A
C940        H945   1.083       .  S
C941        C942   1.419       .  A
C942        N946   1.426       .  S
C943        C948   1.408       .  A
C943        C952   1.400       .  A
N944        O959   1.262       .  A
N944        O960   1.261       .  A
N946        O957   1.262       .  A
N946        O958   1.261       .  A
C948        C949   1.399       .  A
C948        N953   1.429       .  S
C949        C950   1.403       .  A
C949        H954   1.083       .  S
C950        C951   1.411       .  A
C951        C952   1.398       .  A
C951        N955   1.429       .  S
C952        H956   1.084       .  S
N953        O963   1.262       .  A
N953        O964   1.262       .  A
N955        O961   1.262       .  A
N955        O962   1.262       .  A
C965        C966   1.404       .  A
C965        C970   1.405       .  A
C965        H975   1.083       .  S
C966        C971   1.492       .  S
C966        C967   1.410       .  A
C967        C968   1.401       .  A
C967        N972   1.428       .  S
C968        C969   1.406       .  A
C968        H973   1.084       .  S
C969        C970   1.416       .  A
C970        N974   1.427       .  S
C971        C976   1.409       .  A
C971        C980   1.405       .  A
N972        O987   1.262       .  A
N972        O988   1.262       .  A
N974        O985   1.262       .  A
N974        O986   1.261       .  A
C976        C977   1.399       .  A
C976        N981   1.428       .  S
C977        C978   1.408       .  A
C977        H982   1.084       .  S
C978        C979   1.417       .  A
C979        C980   1.407       .  A
C979        N983   1.428   1_554  S
C980        H984   1.084       .  S
N981        O991   1.262       .  A
N981        O992   1.261       .  A
N983        O989   1.262       .  A
N983        O990   1.262       .  A
C993        C994   1.402       .  A
C993        C998   1.401       .  A
C993       H1003   1.084       .  S
C994        C999   1.491       .  S
C994        C995   1.417       .  A
C995        C996   1.404   1_565  A
C995       N1000   1.429       .  S
C996        C997   1.401   1_545  A
C996       H1001   1.084       .  S
C997        C998   1.414       .  A
C998       N1002   1.430       .  S
C999       C1004   1.407       .  A
C999       C1008   1.409       .  A
N1000      O1015   1.262   1_565  A
N1000      O1016   1.262   1_565  A
N1002      O1013   1.262       .  A
N1002      O1014   1.262       .  A
C1004      C1005   1.398       .  A
C1004      N1009   1.430       .  S
C1005      C1006   1.412       .  A
C1005      H1010   1.084       .  S
C1006      C1007   1.411       .  A
C1007      C1008   1.408       .  A
C1007      N1011   1.427       .  S
C1008      H1012   1.084       .  S
N1009      O1019   1.262       .  A
N1009      O1020   1.262       .  A
N1011      O1017   1.262       .  A
N1011      O1018   1.262       .  A
C1021      C1022   1.399       .  A
C1021      C1026   1.401       .  A
C1021      H1031   1.084   1_545  S
C1022      C1027   1.480   1_545  S
C1022      C1023   1.408       .  A
C1023      C1024   1.400       .  A
C1023      N1028   1.428       .  S
C1024      C1025   1.407       .  A
C1024      H1029   1.084       .  S
C1025      C1026   1.415       .  A
C1026      N1030   1.423       .  S
C1027      C1032   1.407       .  A
C1027      C1036   1.400       .  A
N1028      O1043   1.262       .  A
N1028      O1044   1.262       .  A
N1030      O1041   1.261       .  A
N1030      O1042   1.261       .  A
C1032      C1033   1.405       .  A
C1032      N1037   1.428   1_565  S
C1033      C1034   1.409       .  A
C1033      H1038   1.084       .  S
C1034      C1035   1.417       .  A
C1035      C1036   1.395       .  A
C1035      N1039   1.430       .  S
C1036      H1040   1.085       .  S
N1037      O1047   1.262       .  A
N1037      O1048   1.261       .  A
N1039      O1045   1.262       .  A
N1039      O1046   1.262       .  A
C1049      C1050   1.400       .  A
C1049      C1054   1.398       .  A
C1049      H1059   1.083       .  S
C1050      C1055   1.487       .  S
C1050      C1051   1.414       .  A
C1051      C1052   1.403       .  A
C1051      N1056   1.429       .  S
C1052      C1053   1.404       .  A
C1052      H1057   1.083       .  S
C1053      C1054   1.417       .  A
C1054      N1058   1.429       .  S
C1055      C1060   1.413       .  A
C1055      C1064   1.401       .  A
N1056      O1071   1.262       .  A
N1056      O1072   1.262       .  A
N1058      O1069   1.262       .  A
N1058      O1070   1.262       .  A
C1060      C1061   1.401       .  A
C1060      N1065   1.429       .  S
C1061      C1062   1.407       .  A
C1061      H1066   1.084       .  S
C1062      C1063   1.418       .  A
C1063      C1064   1.400       .  A
C1063      N1067   1.429       .  S
C1064      H1068   1.083       .  S
N1065      O1075   1.262       .  A
N1065      O1076   1.262       .  A
N1067      O1073   1.262       .  A
N1067      O1074   1.262       .  A
C1077      C1078   1.399       .  A
C1077      C1082   1.401       .  A
C1077      H1087   1.084       .  S
C1078      C1083   1.488   1_565  S
C1078      C1079   1.414       .  A
C1079      C1080   1.406       .  A
C1079      N1084   1.428       .  S
C1080      C1081   1.403       .  A
C1080      H1085   1.084       .  S
C1081      C1082   1.419       .  A
C1082      N1086   1.430       .  S
C1083      C1088   1.408       .  A
C1083      C1092   1.406       .  A
N1084      O1099   1.262       .  A
N1084      O1100   1.262       .  A
N1086      O1097   1.262       .  A
N1086      O1098   1.262       .  A
C1088      C1089   1.400       .  A
C1088      N1093   1.428       .  S
C1089      C1090   1.406       .  A
C1089      H1094   1.084       .  S
C1090      C1091   1.412       .  A
C1091      C1092   1.406       .  A
C1091      N1095   1.429       .  S
C1092      H1096   1.084       .  S
N1093      O1103   1.262       .  A
N1093      O1104   1.262       .  A
N1095      O1101   1.262       .  A
N1095      O1102   1.262       .  A
C1105      C1106   1.403   1_545  A
C1105      C1110   1.406   1_545  A
C1105      H1115   1.084       .  S
C1106      C1111   1.482   1_565  S
C1106      C1107   1.405       .  A
C1107      C1108   1.398       .  A
C1107      N1112   1.428       .  S
C1108      C1109   1.406       .  A
C1108      H1113   1.084       .  S
C1109      C1110   1.416       .  A
C1110      N1114   1.429   1_565  S
C1111      C1116   1.404       .  A
C1111      C1120   1.402   1_545  A
N1112      O1127   1.262       .  A
N1112      O1128   1.262       .  A
N1114      O1125   1.262       .  A
N1114      O1126   1.262   1_545  A
C1116      C1117   1.398       .  A
C1116      N1121   1.428       .  S
C1117      C1118   1.409       .  A
C1117      H1122   1.083       .  S
C1118      C1119   1.419       .  A
C1119      C1120   1.406   1_545  A
C1119      N1123   1.429   1_545  S
C1120      H1124   1.084       .  S
N1121      O1131   1.262       .  A
N1121      O1132   1.262       .  A
N1123      O1129   1.262       .  A
N1123      O1130   1.261       .  A
C1133      C1134   1.408       .  A
C1133      C1138   1.407       .  A
C1133      H1143   1.084       .  S
C1134      C1139   1.492       .  S
C1134      C1135   1.410       .  A
C1135      C1136   1.401       .  A
C1135      N1140   1.429       .  S
C1136      C1137   1.407       .  A
C1136      H1141   1.084       .  S
C1137      C1138   1.411       .  A
C1138      N1142   1.428       .  S
C1139      C1144   1.415       .  A
C1139      C1148   1.402       .  A
N1140      O1155   1.262       .  A
N1140      O1156   1.262       .  A
N1142      O1153   1.262       .  A
N1142      O1154   1.262       .  A
C1144      C1145   1.405   1_545  A
C1144      N1149   1.429       .  S
C1145      C1146   1.404   1_565  A
C1145      H1150   1.084       .  S
C1146      C1147   1.415       .  A
C1147      C1148   1.403       .  A
C1147      N1151   1.429       .  S
C1148      H1152   1.084       .  S
N1149      O1159   1.262   1_545  A
N1149      O1160   1.262       .  A
N1151      O1157   1.262       .  A
N1151      O1158   1.262   1_556  A
C1161      C1162   1.402       .  A
C1161      C1166   1.403       .  A
C1161      H1171   1.084       .  S
C1162      C1167   1.479       .  S
C1162      C1163   1.408       .  A
C1163      C1164   1.396       .  A
C1163      N1168   1.429       .  S
C1164      C1165   1.406       .  A
C1164      H1169   1.084       .  S
C1165      C1166   1.416       .  A
C1166      N1170   1.428   1_554  S
C1167      C1172   1.408       .  A
C1167      C1176   1.400       .  A
N1168      O1183   1.262       .  A
N1168      O1184   1.262       .  A
N1170      O1181   1.262       .  A
N1170      O1182   1.261       .  A
C1172      C1173   1.401       .  A
C1172      N1177   1.428       .  S
C1173      C1174   1.407       .  A
C1173      H1178   1.084       .  S
C1174      C1175   1.416       .  A
C1175      C1176   1.397       .  A
C1175      N1179   1.430       .  S
C1176      H1180   1.084       .  S
N1177      O1187   1.262       .  A
N1177      O1188   1.262       .  A
N1179      O1185   1.262       .  A
N1179      O1186   1.262       .  A
C1189      C1190   1.405       .  A
C1189      C1194   1.407       .  A
C1189      H1199   1.084       .  S
C1190      C1195   1.486       .  S
C1190      C1191   1.408       .  A
C1191      C1192   1.396       .  A
C1191      N1196   1.430       .  S
C1192      C1193   1.409       .  A
C1192      H1197   1.084       .  S
C1193      C1194   1.417       .  A
C1194      N1198   1.428       .  S
C1195      C1200   1.411       .  A
C1195      C1204   1.400       .  A
N1196      O1211   1.262       .  A
N1196      O1212   1.262       .  A
N1198      O1209   1.262       .  A
N1198      O1210   1.262       .  A
C1200      C1201   1.401       .  A
C1200      N1205   1.429       .  S
C1201      C1202   1.407       .  A
C1201      H1206   1.084       .  S
C1202      C1203   1.420       .  A
C1203      C1204   1.401       .  A
C1203      N1207   1.429       .  S
C1204      H1208   1.084       .  S
N1205      O1215   1.262       .  A
N1205      O1216   1.262       .  A
N1207      O1213   1.262       .  A
N1207      O1214   1.262       .  A
C1217      C1218   1.398       .  A
C1217      C1222   1.399       .  A
C1217      H1227   1.084       .  S
C1218      C1223   1.471       .  S
C1218      C1219   1.407       .  A
C1219      C1220   1.392       .  A
C1219      N1224   1.429       .  S
C1220      C1221   1.405       .  A
C1220      H1225   1.084       .  S
C1221      C1222   1.417       .  A
C1222      N1226   1.429       .  S
C1223      C1228   1.408       .  A
C1223      C1232   1.400       .  A
N1224      O1239   1.262       .  A
N1224      O1240   1.262       .  A
N1226      O1237   1.262       .  A
N1226      O1238   1.261       .  A
C1228      C1229   1.392       .  A
C1228      N1233   1.430       .  S
C1229      C1230   1.403       .  A
C1229      H1234   1.084       .  S
C1230      C1231   1.413       .  A
C1231      C1232   1.399       .  A
C1231      N1235   1.429       .  S
C1232      H1236   1.084       .  S
N1233      O1243   1.262       .  A
N1233      O1244   1.262       .  A
N1235      O1241   1.262       .  A
N1235      O1242   1.262       .  A
C1245      C1246   1.402       .  A
C1245      C1250   1.405       .  A
C1245      H1255   1.084       .  S
C1246      C1251   1.485       .  S
C1246      C1247   1.407       .  A
C1247      C1248   1.401       .  A
C1247      N1252   1.428       .  S
C1248      C1249   1.409       .  A
C1248      H1253   1.083       .  S
C1249      C1250   1.420       .  A
C1250      N1254   1.429       .  S
C1251      C1256   1.409       .  A
C1251      C1260   1.397       .  A
N1252      O1267   1.262       .  A
N1252      O1268   1.261       .  A
N1254      O1265   1.262       .  A
N1254      O1266   1.262       .  A
C1256      C1257   1.407       .  A
C1256      N1261   1.427       .  S
C1257      C1258   1.408       .  A
C1257      H1262   1.083       .  S
C1258      C1259   1.419       .  A
C1259      C1260   1.399       .  A
C1259      N1263   1.426       .  S
C1260      H1264   1.085       .  S
N1261      O1271   1.262       .  A
N1261      O1272   1.261       .  A
N1263      O1269   1.261       .  A
N1263      O1270   1.262       .  A
C1273      C1274   1.398       .  A
C1273      C1278   1.400       .  A
C1273      H1283   1.084       .  S
C1274      C1279   1.482   1_565  S
C1274      C1275   1.411       .  A
C1275      C1276   1.406       .  A
C1275      N1280   1.428       .  S
C1276      C1277   1.404       .  A
C1276      H1281   1.084       .  S
C1277      C1278   1.416       .  A
C1278      N1282   1.429       .  S
C1279      C1284   1.411       .  A
C1279      C1288   1.401       .  A
N1280      O1295   1.262       .  A
N1280      O1296   1.262       .  A
N1282      O1293   1.262       .  A
N1282      O1294   1.262       .  A
C1284      C1285   1.403       .  A
C1284      N1289   1.428       .  S
C1285      C1286   1.401       .  A
C1285      H1290   1.084       .  S
C1286      C1287   1.411       .  A
C1287      C1288   1.403       .  A
C1287      N1291   1.429       .  S
C1288      H1292   1.084       .  S
N1289      O1299   1.262       .  A
N1289      O1300   1.262       .  A
N1291      O1297   1.262       .  A
N1291      O1298   1.262       .  A
C1301      C1302   1.405   1_545  A
C1301      C1306   1.409   1_545  A
C1301      H1311   1.084       .  S
C1302      C1307   1.495   1_565  S
C1302      C1303   1.413       .  A
C1303      C1304   1.401       .  A
C1303      N1308   1.428       .  S
C1304      C1305   1.403       .  A
C1304      H1309   1.084       .  S
C1305      C1306   1.414       .  A
C1306      N1310   1.426       .  S
C1307      C1312   1.414       .  A
C1307      C1316   1.400       .  A
N1308      O1323   1.262   1_565  A
N1308      O1324   1.261       .  A
N1310      O1321   1.261       .  A
N1310      O1322   1.262   1_565  A
C1312      C1313   1.408       .  A
C1312      N1317   1.428   1_545  S
C1313      C1314   1.407       .  A
C1313      H1318   1.084       .  S
C1314      C1315   1.419       .  A
C1315      C1316   1.400       .  A
C1315      N1319   1.429       .  S
C1316      H1320   1.083       .  S
N1317      O1327   1.262       .  A
N1317      O1328   1.262       .  A
N1319      O1325   1.262       .  A
N1319      O1326   1.262       .  A
C1329      C1330   1.396       .  A
C1329      C1334   1.405       .  A
C1329      H1339   1.084       .  S
C1330      C1335   1.483       .  S
C1330      C1331   1.407       .  A
C1331      C1332   1.398       .  A
C1331      N1336   1.429       .  S
C1332      C1333   1.411       .  A
C1332      H1337   1.083       .  S
C1333      C1334   1.421       .  A
C1334      N1338   1.424   1_556  S
C1335      C1340   1.410       .  A
C1335      C1344   1.401       .  A
N1336      O1351   1.262       .  A
N1336      O1352   1.262       .  A
N1338      O1349   1.262       .  A
N1338      O1350   1.261       .  A
C1340      C1341   1.398       .  A
C1340      N1345   1.428       .  S
C1341      C1342   1.402       .  A
C1341      H1346   1.084       .  S
C1342      C1343   1.412       .  A
C1343      C1344   1.400       .  A
C1343      N1347   1.427       .  S
C1344      H1348   1.084       .  S
N1345      O1355   1.262       .  A
N1345      O1356   1.261       .  A
N1347      O1353   1.262       .  A
N1347      O1354   1.262       .  A
C1357      C1358   1.399       .  A
C1357      C1362   1.397       .  A
C1357      H1367   1.084       .  S
C1358      C1363   1.472       .  S
C1358      C1359   1.408       .  A
C1359      C1360   1.398       .  A
C1359      N1364   1.428       .  S
C1360      C1361   1.402       .  A
C1360      H1365   1.084       .  S
C1361      C1362   1.412       .  A
C1362      N1366   1.429       .  S
C1363      C1368   1.404       .  A
C1363      C1372   1.401       .  A
N1364      O1379   1.262       .  A
N1364      O1380   1.262       .  A
N1366      O1377   1.262       .  A
N1366      O1378   1.262       .  A
C1368      C1369   1.394       .  A
C1368      N1373   1.429       .  S
C1369      C1370   1.407       .  A
C1369      H1374   1.084       .  S
C1370      C1371   1.415       .  A
C1371      C1372   1.401       .  A
C1371      N1375   1.428       .  S
C1372      H1376   1.084       .  S
N1373      O1383   1.262       .  A
N1373      O1384   1.262       .  A
N1375      O1381   1.262       .  A
N1375      O1382   1.262       .  A
C1385      C1386   1.404       .  A
C1385      C1390   1.405       .  A
C1385      H1395   1.084       .  S
C1386      C1391   1.482       .  S
C1386      C1387   1.408       .  A
C1387      C1388   1.396       .  A
C1387      N1392   1.429       .  S
C1388      C1389   1.406       .  A
C1388      H1393   1.084       .  S
C1389      C1390   1.414       .  A
C1390      N1394   1.428       .  S
C1391      C1396   1.407       .  A
C1391      C1400   1.403       .  A
N1392      O1407   1.262       .  A
N1392      O1408   1.262       .  A
N1394      O1405   1.262       .  A
N1394      O1406   1.262       .  A
C1396      C1397   1.397       .  A
C1396      N1401   1.429       .  S
C1397      C1398   1.408       .  A
C1397      H1402   1.084       .  S
C1398      C1399   1.416       .  A
C1399      C1400   1.402       .  A
C1399      N1403   1.429       .  S
C1400      H1404   1.084       .  S
N1401      O1411   1.262       .  A
N1401      O1412   1.262       .  A
N1403      O1409   1.262       .  A
N1403      O1410   1.262       .  A
C1413      C1414   1.403       .  A
C1413      C1418   1.403       .  A
C1413      H1423   1.083       .  S
C1414      C1419   1.495   1_565  S
C1414      C1415   1.415       .  A
C1415      C1416   1.402       .  A
C1415      N1420   1.429   1_565  S
C1416      C1417   1.404       .  A
C1416      H1421   1.084       .  S
C1417      C1418   1.417       .  A
C1418      N1422   1.429       .  S
C1419      C1424   1.416       .  A
C1419      C1428   1.402       .  A
N1420      O1435   1.262       .  A
N1420      O1436   1.262       .  A
N1422      O1433   1.262       .  A
N1422      O1434   1.262       .  A
C1424      C1425   1.404       .  A
C1424      N1429   1.429   1_545  S
C1425      C1426   1.404       .  A
C1425      H1430   1.084       .  S
C1426      C1427   1.416       .  A
C1427      C1428   1.400       .  A
C1427      N1431   1.429       .  S
C1428      H1432   1.083       .  S
N1429      O1439   1.262       .  A
N1429      O1440   1.262       .  A
N1431      O1437   1.262       .  A
N1431      O1438   1.262       .  A
C1441      C1442   1.404       .  A
C1441      C1446   1.405   1_545  A
C1441      H1451   1.084       .  S
C1442      C1447   1.484       .  S
C1442      C1443   1.406       .  A
C1443      C1444   1.399       .  A
C1443      N1448   1.427       .  S
C1444      C1445   1.406       .  A
C1444      H1449   1.084       .  S
C1445      C1446   1.413   1_545  A
C1446      N1450   1.429       .  S
C1447      C1452   1.405       .  A
C1447      C1456   1.405       .  A
N1448      O1463   1.262       .  A
N1448      O1464   1.262       .  A
N1450      O1461   1.261       .  A
N1450      O1462   1.262       .  A
C1452      C1453   1.399       .  A
C1452      N1457   1.428       .  S
C1453      C1454   1.407       .  A
C1453      H1458   1.084       .  S
C1454      C1455   1.413       .  A
C1455      C1456   1.407       .  A
C1455      N1459   1.428       .  S
C1456      H1460   1.084       .  S
N1457      O1467   1.262       .  A
N1457      O1468   1.262       .  A
N1459      O1465   1.262       .  A
N1459      O1466   1.262       .  A
C1469      C1470   1.401       .  A
C1469      C1474   1.402       .  A
C1469      H1479   1.084       .  S
C1470      C1475   1.487       .  S
C1470      C1471   1.412       .  A
C1471      C1472   1.405       .  A
C1471      N1476   1.428       .  S
C1472      C1473   1.404       .  A
C1472      H1477   1.084   1_556  S
C1473      C1474   1.415       .  A
C1474      N1478   1.429       .  S
C1475      C1480   1.406       .  A
C1475      C1484   1.405       .  A
N1476      O1491   1.262       .  A
N1476      O1492   1.261       .  A
N1478      O1489   1.262       .  A
N1478      O1490   1.262       .  A
C1480      C1481   1.398       .  A
C1480      N1485   1.429       .  S
C1481      C1482   1.410       .  A
C1481      H1486   1.083       .  S
C1482      C1483   1.417       .  A
C1483      C1484   1.409       .  A
C1483      N1487   1.428       .  S
C1484      H1488   1.084       .  S
N1485      O1495   1.262       .  A
N1485      O1496   1.261       .  A
N1487      O1493   1.262       .  A
N1487      O1494   1.262       .  A
C1497      C1498   1.402       .  A
C1497      C1502   1.403       .  A
C1497      H1507   1.084       .  S
C1498      C1503   1.479       .  S
C1498      C1499   1.406       .  A
C1499      C1500   1.394       .  A
C1499      N1504   1.429       .  S
C1500      C1501   1.408       .  A
C1500      H1505   1.084       .  S
C1501      C1502   1.416       .  A
C1502      N1506   1.428       .  S
C1503      C1508   1.405       .  A
C1503      C1512   1.401       .  A
N1504      O1519   1.262       .  A
N1504      O1520   1.262       .  A
N1506      O1517   1.262       .  A
N1506      O1518   1.262       .  A
C1508      C1509   1.396       .  A
C1508      N1513   1.429       .  S
C1509      C1510   1.409       .  A
C1509      H1514   1.083       .  S
C1510      C1511   1.418       .  A
C1511      C1512   1.402       .  A
C1511      N1515   1.429       .  S
C1512      H1516   1.084       .  S
N1513      O1523   1.262       .  A
N1513      O1524   1.262       .  A
N1515      O1521   1.262       .  A
N1515      O1522   1.262       .  A
C1525      C1526   1.403       .  A
C1525      C1530   1.399       .  A
C1525      H1535   1.083       .  S
C1526      C1531   1.486   1_565  S
C1526      C1527   1.414       .  A
C1527      C1528   1.400       .  A
C1527      N1532   1.430   1_565  S
C1528      C1529   1.404       .  A
C1528      H1533   1.084       .  S
C1529      C1530   1.412       .  A
C1530      N1534   1.429       .  S
C1531      C1536   1.413       .  A
C1531      C1540   1.402       .  A
N1532      O1547   1.262       .  A
N1532      O1548   1.261       .  A
N1534      O1545   1.262       .  A
N1534      O1546   1.262       .  A
C1536      C1537   1.402       .  A
C1536      N1541   1.429   1_545  S
C1537      C1538   1.405       .  A
C1537      H1542   1.084       .  S
C1538      C1539   1.414       .  A
C1539      C1540   1.397       .  A
C1539      N1543   1.429       .  S
C1540      H1544   1.083       .  S
N1541      O1551   1.262       .  A
N1541      O1552   1.262       .  A
N1543      O1549   1.262       .  A
N1543      O1550   1.262       .  A
C1553      C1554   1.408       .  A
C1553      C1558   1.407       .  A
C1553      H1563   1.083       .  S
C1554      C1559   1.490       .  S
C1554      C1555   1.408       .  A
C1555      C1556   1.398       .  A
C1555      N1560   1.429       .  S
C1556      C1557   1.407       .  A
C1556      H1561   1.084       .  S
C1557      C1558   1.412       .  A
C1558      N1562   1.428   1_565  S
C1559      C1564   1.408       .  A
C1559      C1568   1.407       .  A
N1560      O1575   1.262       .  A
N1560      O1576   1.262       .  A
N1562      O1573   1.262       .  A
N1562      O1574   1.262       .  A
C1564      C1565   1.399       .  A
C1564      N1569   1.429       .  S
C1565      C1566   1.408       .  A
C1565      H1570   1.084       .  S
C1566      C1567   1.413       .  A
C1567      C1568   1.405       .  A
C1567      N1571   1.429       .  S
C1568      H1572   1.083       .  S
N1569      O1579   1.262       .  A
N1569      O1580   1.262       .  A
N1571      O1577   1.262       .  A
N1571      O1578   1.262       .  A
C1581      C1582   1.400       .  A
C1581      C1586   1.399       .  A
C1581      H1591   1.084   1_545  S
C1582      C1587   1.487   1_546  S
C1582      C1583   1.409   1_556  A
C1583      C1584   1.402   1_554  A
C1583      N1588   1.427       .  S
C1584      C1585   1.407       .  A
C1584      H1589   1.084   1_556  S
C1585      C1586   1.410       .  A
C1586      N1590   1.420       .  S
C1587      C1592   1.409       .  A
C1587      C1596   1.404       .  A
N1588      O1603   1.262       .  A
N1588      O1604   1.262       .  A
N1590      O1601   1.260       .  A
N1590      O1602   1.260       .  A
C1592      C1593   1.395       .  A
C1592      N1597   1.429   1_554  S
C1593      C1594   1.405       .  A
C1593      H1598   1.084       .  S
C1594      C1595   1.417       .  A
C1595      C1596   1.407       .  A
C1595      N1599   1.429       .  S
C1596      H1600   1.084   1_565  S
N1597      O1607   1.262       .  A
N1597      O1608   1.262   1_556  A
N1599      O1605   1.262       .  A
N1599      O1606   1.262       .  A
C1609      C1610   1.404       .  A
C1609      C1614   1.406       .  A
C1609      H1619   1.084       .  S
C1610      C1615   1.493       .  S
C1610      C1611   1.410       .  A
C1611      C1612   1.402       .  A
C1611      N1616   1.429       .  S
C1612      C1613   1.410       .  A
C1612      H1617   1.084       .  S
C1613      C1614   1.418       .  A
C1614      N1618   1.428       .  S
C1615      C1620   1.410       .  A
C1615      C1624   1.404       .  A
N1616      O1631   1.262       .  A
N1616      O1632   1.262       .  A
N1618      O1629   1.262       .  A
N1618      O1630   1.262       .  A
C1620      C1621   1.400       .  A
C1620      N1625   1.428       .  S
C1621      C1622   1.407       .  A
C1621      H1626   1.084       .  S
C1622      C1623   1.417       .  A
C1623      C1624   1.408       .  A
C1623      N1627   1.427       .  S
C1624      H1628   1.084       .  S
N1625      O1635   1.262       .  A
N1625      O1636   1.262       .  A
N1627      O1633   1.262       .  A
N1627      O1634   1.260       .  A
C1637      C1638   1.401       .  A
C1637      C1642   1.400       .  A
C1637      H1647   1.084       .  S
C1638      C1643   1.481       .  S
C1638      C1639   1.407       .  A
C1639      C1640   1.400       .  A
C1639      N1644   1.428       .  S
C1640      C1641   1.407       .  A
C1640      H1645   1.084       .  S
C1641      C1642   1.411       .  A
C1642      N1646   1.424       .  S
C1643      C1648   1.408       .  A
C1643      C1652   1.403       .  A
N1644      O1659   1.262       .  A
N1644      O1660   1.262       .  A
N1646      O1657   1.262       .  A
N1646      O1658   1.262       .  A
C1648      C1649   1.396       .  A
C1648      N1653   1.428       .  S
C1649      C1650   1.403       .  A
C1649      H1654   1.084       .  S
C1650      C1651   1.414       .  A
C1651      C1652   1.403       .  A
C1651      N1655   1.429       .  S
C1652      H1656   1.084       .  S
N1653      O1663   1.262       .  A
N1653      O1664   1.262       .  A
N1655      O1661   1.262       .  A
N1655      O1662   1.262       .  A
C1665      C1666   1.401       .  A
C1665      C1670   1.400       .  A
C1665      H1675   1.083       .  S
C1666      C1671   1.499       .  S
C1666      C1667   1.415       .  A
C1667      C1668   1.411       .  A
C1667      N1672   1.428       .  S
C1668      C1669   1.408       .  A
C1668      H1673   1.083       .  S
C1669      C1670   1.419       .  A
C1670      N1674   1.429       .  S
C1671      C1676   1.415   1_554  A
C1671      C1680   1.404       .  A
N1672      O1687   1.262       .  A
N1672      O1688   1.262       .  A
N1674      O1685   1.262       .  A
N1674      O1686   1.262       .  A
C1676      C1677   1.404       .  A
C1676      N1681   1.429       .  S
C1677      C1678   1.405       .  A
C1677      H1682   1.084       .  S
C1678      C1679   1.419   1_556  A
C1679      C1680   1.407       .  A
C1679      N1683   1.429   1_545  S
C1680      H1684   1.083       .  S
N1681      O1691   1.262       .  A
N1681      O1692   1.262       .  A
N1683      O1689   1.262       .  A
N1683      O1690   1.262       .  A
C1693      C1694   1.401       .  A
C1693      C1698   1.401       .  A
C1693      H1703   1.084       .  S
C1694      C1699   1.474       .  S
C1694      C1695   1.409       .  A
C1695      C1696   1.390       .  A
C1695      N1700   1.430       .  S
C1696      C1697   1.403       .  A
C1696      H1701   1.084       .  S
C1697      C1698   1.416       .  A
C1698      N1702   1.429       .  S
C1699      C1704   1.409       .  A
C1699      C1708   1.400       .  A
N1700      O1715   1.262       .  A
N1700      O1716   1.262       .  A
N1702      O1713   1.262       .  A
N1702      O1714   1.262       .  A
C1704      C1705   1.394       .  A
C1704      N1709   1.429       .  S
C1705      C1706   1.403       .  A
C1705      H1710   1.084       .  S
C1706      C1707   1.413       .  A
C1707      C1708   1.397       .  A
C1707      N1711   1.428   1_556  S
C1708      H1712   1.084       .  S
N1709      O1719   1.262       .  A
N1709      O1720   1.262       .  A
N1711      O1717   1.262       .  A
N1711      O1718   1.262       .  A
C1721      C1722   1.404       .  A
C1721      C1726   1.404       .  A
C1721      H1731   1.083       .  S
C1722      C1727   1.491       .  S
C1722      C1723   1.410       .  A
C1723      C1724   1.400       .  A
C1723      N1728   1.429       .  S
C1724      C1725   1.408       .  A
C1724      H1729   1.084       .  S
C1725      C1726   1.417       .  A
C1726      N1730   1.429       .  S
C1727      C1732   1.411       .  A
C1727      C1736   1.406       .  A
N1728      O1743   1.262       .  A
N1728      O1744   1.262       .  A
N1730      O1741   1.262       .  A
N1730      O1742   1.262       .  A
C1732      C1733   1.397       .  A
C1732      N1737   1.428       .  S
C1733      C1734   1.402       .  A
C1733      H1738   1.084       .  S
C1734      C1735   1.414       .  A
C1735      C1736   1.405       .  A
C1735      N1739   1.429       .  S
C1736      H1740   1.083       .  S
N1737      O1747   1.262       .  A
N1737      O1748   1.262       .  A
N1739      O1745   1.262       .  A
N1739      O1746   1.261       .  A
C1749      C1750   1.407       .  A
C1749      C1754   1.405       .  A
C1749      H1759   1.083       .  S
C1750      C1755   1.489       .  S
C1750      C1751   1.408       .  A
C1751      C1752   1.400       .  A
C1751      N1756   1.428       .  S
C1752      C1753   1.405       .  A
C1752      H1757   1.084       .  S
C1753      C1754   1.410       .  A
C1754      N1758   1.429       .  S
C1755      C1760   1.406       .  A
C1755      C1764   1.409       .  A
N1756      O1771   1.262       .  A
N1756      O1772   1.262       .  A
N1758      O1769   1.262       .  A
N1758      O1770   1.262       .  A
C1760      C1761   1.395       .  A
C1760      N1765   1.429       .  S
C1761      C1762   1.408       .  A
C1761      H1766   1.084       .  S
C1762      C1763   1.412       .  A
C1763      C1764   1.410       .  A
C1763      N1767   1.428       .  S
C1764      H1768   1.083       .  S
N1765      O1775   1.262       .  A
N1765      O1776   1.261       .  A
N1767      O1773   1.262       .  A
N1767      O1774   1.262       .  A
C1777      C1778   1.409       .  A
C1777      C1782   1.411       .  A
C1777      H1787   1.083       .  S
C1778      C1783   1.502       .  S
C1778      C1779   1.412       .  A
C1779      C1780   1.402       .  A
C1779      N1784   1.428       .  S
C1780      C1781   1.406       .  A
C1780      H1785   1.084       .  S
C1781      C1782   1.414       .  A
C1782      N1786   1.429       .  S
C1783      C1788   1.413       .  A
C1783      C1792   1.409       .  A
N1784      O1799   1.262       .  A
N1784      O1800   1.262       .  A
N1786      O1797   1.262       .  A
N1786      O1798   1.262       .  A
C1788      C1789   1.404       .  A
C1788      N1793   1.428       .  S
C1789      C1790   1.403       .  A
C1789      H1794   1.084       .  S
C1790      C1791   1.412       .  A
C1791      C1792   1.409       .  A
C1791      N1795   1.429       .  S
C1792      H1796   1.083       .  S
N1793      O1803   1.262       .  A
N1793      O1804   1.262       .  A
N1795      O1801   1.262       .  A
N1795      O1802   1.262       .  A
C1805      C1806   1.403       .  A
C1805      C1810   1.407       .  A
C1805      H1815   1.084       .  S
C1806      C1811   1.483       .  S
C1806      C1807   1.408       .  A
C1807      C1808   1.398       .  A
C1807      N1812   1.429       .  S
C1808      C1809   1.407       .  A
C1808      H1813   1.083       .  S
C1809      C1810   1.416       .  A
C1810      N1814   1.428       .  S
C1811      C1816   1.409       .  A
C1811      C1820   1.399       .  A
N1812      O1827   1.262       .  A
N1812      O1828   1.261       .  A
N1814      O1825   1.262       .  A
N1814      O1826   1.262       .  A
C1816      C1817   1.402       .  A
C1816      N1821   1.428       .  S
C1817      C1818   1.408       .  A
C1817      H1822   1.084       .  S
C1818      C1819   1.420       .  A
C1819      C1820   1.402       .  A
C1819      N1823   1.429       .  S
C1820      H1824   1.084       .  S
N1821      O1831   1.262       .  A
N1821      O1832   1.261       .  A
N1823      O1829   1.262       .  A
N1823      O1830   1.262       .  A
C1833      C1834   1.403       .  A
C1833      C1838   1.397       .  A
C1833      H1843   1.083       .  S
C1834      C1839   1.482       .  S
C1834      C1835   1.412       .  A
C1835      C1836   1.397       .  A
C1835      N1840   1.429       .  S
C1836      C1837   1.403       .  A
C1836      H1841   1.084       .  S
C1837      C1838   1.414       .  A
C1838      N1842   1.430       .  S
C1839      C1844   1.412       .  A
C1839      C1848   1.403       .  A
N1840      O1855   1.262       .  A
N1840      O1856   1.261       .  A
N1842      O1853   1.262       .  A
N1842      O1854   1.262       .  A
C1844      C1845   1.398       .  A
C1844      N1849   1.429       .  S
C1845      C1846   1.403       .  A
C1845      H1850   1.084       .  S
C1846      C1847   1.412       .  A
C1847      C1848   1.396       .  A
C1847      N1851   1.430       .  S
C1848      H1852   1.083       .  S
N1849      O1859   1.262       .  A
N1849      O1860   1.261       .  A
N1851      O1857   1.262       .  A
N1851      O1858   1.262       .  A
C1861      C1862   1.399       .  A
C1861      C1866   1.402       .  A
C1861      H1871   1.084       .  S
C1862      C1867   1.482       .  S
C1862      C1863   1.408       .  A
C1863      C1864   1.403       .  A
C1863      N1868   1.428       .  S
C1864      C1865   1.406       .  A
C1864      H1869   1.084       .  S
C1865      C1866   1.419       .  A
C1866      N1870   1.429       .  S
C1867      C1872   1.405       .  A
C1867      C1876   1.402       .  A
N1868      O1883   1.262       .  A
N1868      O1884   1.262       .  A
N1870      O1881   1.262       .  A
N1870      O1882   1.262       .  A
C1872      C1873   1.398       .  A
C1872      N1877   1.428       .  S
C1873      C1874   1.408       .  A
C1873      H1878   1.084       .  S
C1874      C1875   1.419       .  A
C1875      C1876   1.406       .  A
C1875      N1879   1.429   1_556  S
C1876      H1880   1.084       .  S
N1877      O1887   1.262       .  A
N1877      O1888   1.262       .  A
N1879      O1885   1.261       .  A
N1879      O1886   1.262       .  A
C1889      C1890   1.407       .  A
C1889      C1894   1.408       .  A
C1889      H1899   1.083       .  S
C1890      C1895   1.489       .  S
C1890      C1891   1.408       .  A
C1891      C1892   1.398       .  A
C1891      N1896   1.428       .  S
C1892      C1893   1.403       .  A
C1892      H1897   1.084       .  S
C1893      C1894   1.413       .  A
C1894      N1898   1.429       .  S
C1895      C1900   1.407       .  A
C1895      C1904   1.407       .  A
N1896      O1911   1.262       .  A
N1896      O1912   1.262       .  A
N1898      O1909   1.262       .  A
N1898      O1910   1.262       .  A
C1900      C1901   1.400       .  A
C1900      N1905   1.428       .  S
C1901      C1902   1.408       .  A
C1901      H1906   1.084       .  S
C1902      C1903   1.413       .  A
C1903      C1904   1.406       .  A
C1903      N1907   1.429       .  S
C1904      H1908   1.084       .  S
N1905      O1915   1.262       .  A
N1905      O1916   1.262       .  A
N1907      O1913   1.262       .  A
N1907      O1914   1.262       .  A
C1917      C1918   1.399       .  A
C1917      C1922   1.401       .  A
C1917      H1927   1.084       .  S
C1918      C1923   1.484       .  S
C1918      C1919   1.410       .  A
C1919      C1920   1.404       .  A
C1919      N1924   1.428       .  S
C1920      C1921   1.406       .  A
C1920      H1925   1.084       .  S
C1921      C1922   1.417       .  A
C1922      N1926   1.429       .  S
C1923      C1928   1.405       .  A
C1923      C1932   1.404       .  A
N1924      O1939   1.262       .  A
N1924      O1940   1.262       .  A
N1926      O1937   1.262       .  A
N1926      O1938   1.262       .  A
C1928      C1929   1.399       .  A
C1928      N1933   1.429       .  S
C1929      C1930   1.411       .  A
C1929      H1934   1.083       .  S
C1930      C1931   1.416       .  A
C1931      C1932   1.407       .  A
C1931      N1935   1.428       .  S
C1932      H1936   1.084       .  S
N1933      O1943   1.262       .  A
N1933      O1944   1.262       .  A
N1935      O1941   1.262       .  A
N1935      O1942   1.262       .  A
C1945      C1946   1.398       .  A
C1945      C1950   1.404       .  A
C1945      H1955   1.084       .  S
C1946      C1951   1.492       .  S
C1946      C1947   1.410       .  A
C1947      C1948   1.409       .  A
C1947      N1952   1.428       .  S
C1948      C1949   1.410       .  A
C1948      H1953   1.083       .  S
C1949      C1950   1.424       .  A
C1950      N1954   1.429       .  S
C1951      C1956   1.407       .  A
C1951      C1960   1.406       .  A
N1952      O1967   1.262       .  A
N1952      O1968   1.262       .  A
N1954      O1965   1.262       .  A
N1954      O1966   1.262       .  A
C1956      C1957   1.400       .  A
C1956      N1961   1.428       .  S
C1957      C1958   1.410       .  A
C1957      H1962   1.084       .  S
C1958      C1959   1.418       .  A
C1959      C1960   1.412       .  A
C1959      N1963   1.428       .  S
C1960      H1964   1.084       .  S
N1961      O1971   1.262       .  A
N1961      O1972   1.262       .  A
N1963      O1969   1.262       .  A
N1963      O1970   1.262       .  A
C1973      C1974   1.398       .  A
C1973      C1978   1.398       .  A
C1973      H1983   1.084       .  S
C1974      C1979   1.469       .  S
C1974      C1975   1.408       .  A
C1975      C1976   1.394       .  A
C1975      N1980   1.429       .  S
C1976      C1977   1.403       .  A
C1976      H1981   1.084       .  S
C1977      C1978   1.416       .  A
C1978      N1982   1.429       .  S
C1979      C1984   1.405       .  A
C1979      C1988   1.396       .  A
N1980      O1995   1.262       .  A
N1980      O1996   1.262       .  A
N1982      O1993   1.262       .  A
N1982      O1994   1.262       .  A
C1984      C1985   1.393       .  A
C1984      N1989   1.429       .  S
C1985      C1986   1.407       .  A
C1985      H1990   1.084       .  S
C1986      C1987   1.414       .  A
C1987      C1988   1.400       .  A
C1987      N1991   1.423       .  S
C1988      H1992   1.084       .  S
N1989      O1999   1.262       .  A
N1989      O2000   1.262       .  A
N1991      O1997   1.262       .  A
N1991      O1998   1.261       .  A
C2001      C2002   1.406       .  A
C2001      C2006   1.405       .  A
C2001      H2011   1.084       .  S
C2002      C2007   1.487       .  S
C2002      C2003   1.407       .  A
C2003      C2004   1.400       .  A
C2003      N2008   1.428       .  S
C2004      C2005   1.405       .  A
C2004      H2009   1.084       .  S
C2005      C2006   1.411       .  A
C2006      N2010   1.429       .  S
C2007      C2012   1.407       .  A
C2007      C2016   1.406       .  A
N2008      O2023   1.262       .  A
N2008      O2024   1.262       .  A
N2010      O2021   1.262       .  A
N2010      O2022   1.262       .  A
C2012      C2013   1.399       .  A
C2012      N2017   1.428       .  S
C2013      C2014   1.406       .  A
C2013      H2018   1.084       .  S
C2014      C2015   1.412       .  A
C2015      C2016   1.407       .  A
C2015      N2019   1.428       .  S
C2016      H2020   1.084       .  S
N2017      O2027   1.262       .  A
N2017      O2028   1.262       .  A
N2019      O2025   1.262       .  A
N2019      O2026   1.262       .  A
C2029      C2030   1.404       .  A
C2029      C2034   1.408       .  A
C2029      H2039   1.084       .  S
C2030      C2035   1.483       .  S
C2030      C2031   1.407       .  A
C2031      C2032   1.396       .  A
C2031      N2036   1.429       .  S
C2032      C2033   1.407       .  A
C2032      H2037   1.084       .  S
C2033      C2034   1.415       .  A
C2034      N2038   1.428       .  S
C2035      C2040   1.409       .  A
C2035      C2044   1.397       .  A
N2036      O2051   1.262       .  A
N2036      O2052   1.261       .  A
N2038      O2049   1.262       .  A
N2038      O2050   1.262       .  A
C2040      C2041   1.404       .  A
C2040      N2045   1.428       .  S
C2041      C2042   1.408       .  A
C2041      H2046   1.083       .  S
C2042      C2043   1.423       .  A
C2043      C2044   1.400       .  A
C2043      N2047   1.429       .  S
C2044      H2048   1.084       .  S
N2045      O2055   1.262       .  A
N2045      O2056   1.261       .  A
N2047      O2053   1.262       .  A
N2047      O2054   1.262       .  A
C2057      C2058   1.404       .  A
C2057      C2062   1.401       .  A
C2057      H2067   1.084       .  S
C2058      C2063   1.493   1_556  S
C2058      C2059   1.414       .  A
C2059      C2060   1.406       .  A
C2059      N2064   1.429       .  S
C2060      C2061   1.405       .  A
C2060      H2065   1.084       .  S
C2061      C2062   1.412       .  A
C2062      N2066   1.429       .  S
C2063      C2068   1.411   1_554  A
C2063      C2072   1.403       .  A
N2064      O2079   1.262       .  A
N2064      O2080   1.262       .  A
N2066      O2077   1.262       .  A
N2066      O2078   1.262       .  A
C2068      C2069   1.403   1_556  A
C2068      N2073   1.428       .  S
C2069      C2070   1.410       .  A
C2069      H2074   1.084       .  S
C2070      C2071   1.413       .  A
C2071      C2072   1.403       .  A
C2071      N2075   1.422       .  S
C2072      H2076   1.084       .  S
N2073      O2083   1.262       .  A
N2073      O2084   1.262       .  A
N2075      O2081   1.262       .  A
N2075      O2082   1.261       .  A
C2085      C2086   1.404       .  A
C2085      C2090   1.405       .  A
C2085      H2095   1.084       .  S
C2086      C2091   1.487       .  S
C2086      C2087   1.410       .  A
C2087      C2088   1.399       .  A
C2087      N2092   1.429       .  S
C2088      C2089   1.409       .  A
C2088      H2093   1.084       .  S
C2089      C2090   1.415       .  A
C2090      N2094   1.428       .  S
C2091      C2096   1.411       .  A
C2091      C2100   1.400       .  A
N2092      O2107   1.262       .  A
N2092      O2108   1.262       .  A
N2094      O2105   1.262       .  A
N2094      O2106   1.262       .  A
C2096      C2097   1.404       .  A
C2096      N2101   1.429       .  S
C2097      C2098   1.407       .  A
C2097      H2102   1.083       .  S
C2098      C2099   1.420       .  A
C2099      C2100   1.400       .  A
C2099      N2103   1.429       .  S
C2100      H2104   1.084       .  S
N2101      O2111   1.262       .  A
N2101      O2112   1.262       .  A
N2103      O2109   1.262       .  A
N2103      O2110   1.262       .  A
C2113      C2114   1.403       .  A
C2113      C2118   1.406       .  A
C2113      H2123   1.083       .  S
C2114      C2119   1.497       .  S
C2114      C2115   1.414       .  A
C2115      C2116   1.402       .  A
C2115      N2120   1.429       .  S
C2116      C2117   1.406       .  A
C2116      H2121   1.083       .  S
C2117      C2118   1.422       .  A
C2118      N2122   1.429       .  S
C2119      C2124   1.415       .  A
C2119      C2128   1.400       .  A
N2120      O2135   1.262       .  A
N2120      O2136   1.261       .  A
N2122      O2133   1.262       .  A
N2122      O2134   1.262       .  A
C2124      C2125   1.408       .  A
C2124      N2129   1.428       .  S
C2125      C2126   1.409       .  A
C2125      H2130   1.083       .  S
C2126      C2127   1.420       .  A
C2127      C2128   1.400       .  A
C2127      N2131   1.427       .  S
C2128      H2132   1.083       .  S
N2129      O2139   1.262       .  A
N2129      O2140   1.262       .  A
N2131      O2137   1.261       .  A
N2131      O2138   1.262       .  A
C2141      C2142   1.403       .  A
C2141      C2146   1.403       .  A
C2141      H2151   1.084       .  S
C2142      C2147   1.491       .  S
C2142      C2143   1.414       .  A
C2143      C2144   1.405       .  A
C2143      N2148   1.429       .  S
C2144      C2145   1.405       .  A
C2144      H2149   1.084       .  S
C2145      C2146   1.412       .  A
C2146      N2150   1.428       .  S
C2147      C2152   1.408       .  A
C2147      C2156   1.406       .  A
N2148      O2163   1.262       .  A
N2148      O2164   1.262       .  A
N2150      O2161   1.262       .  A
N2150      O2162   1.262       .  A
C2152      C2153   1.401       .  A
C2152      N2157   1.429       .  S
C2153      C2154   1.410       .  A
C2153      H2158   1.084       .  S
C2154      C2155   1.417       .  A
C2155      C2156   1.408       .  A
C2155      N2159   1.428       .  S
C2156      H2160   1.084       .  S
N2157      O2167   1.262       .  A
N2157      O2168   1.262       .  A
N2159      O2165   1.262       .  A
N2159      O2166   1.262       .  A
C2169      C2170   1.401       .  A
C2169      C2174   1.402       .  A
C2169      H2179   1.084       .  S
C2170      C2175   1.471       .  S
C2170      C2171   1.406       .  A
C2171      C2172   1.393       .  A
C2171      N2176   1.429       .  S
C2172      C2173   1.406       .  A
C2172      H2177   1.084       .  S
C2173      C2174   1.417       .  A
C2174      N2178   1.429       .  S
C2175      C2180   1.405       .  A
C2175      C2184   1.400       .  A
N2176      O2191   1.262       .  A
N2176      O2192   1.262       .  A
N2178      O2189   1.262       .  A
N2178      O2190   1.262       .  A
C2180      C2181   1.397       .  A
C2180      N2185   1.428       .  S
C2181      C2182   1.407       .  A
C2181      H2186   1.084       .  S
C2182      C2183   1.415       .  A
C2183      C2184   1.396       .  A
C2183      N2187   1.430       .  S
C2184      H2188   1.085       .  S
N2185      O2195   1.262       .  A
N2185      O2196   1.262       .  A
N2187      O2193   1.262       .  A
N2187      O2194   1.262       .  A
C2197      C2198   1.397       .  A
C2197      C2202   1.401       .  A
C2197      H2207   1.084       .  S
C2198      C2203   1.482       .  S
C2198      C2199   1.407       .  A
C2199      C2200   1.403       .  A
C2199      N2204   1.427       .  S
C2200      C2201   1.407       .  A
C2200      H2205   1.083       .  S
C2201      C2202   1.424       .  A
C2202      N2206   1.430       .  S
C2203      C2208   1.408       .  A
C2203      C2212   1.399       .  A
N2204      O2219   1.262       .  A
N2204      O2220   1.262       .  A
N2206      O2217   1.261       .  A
N2206      O2218   1.262       .  A
C2208      C2209   1.403       .  A
C2208      N2213   1.428       .  S
C2209      C2210   1.405       .  A
C2209      H2214   1.082       .  S
C2210      C2211   1.418       .  A
C2211      C2212   1.402       .  A
C2211      N2215   1.429       .  S
C2212      H2216   1.084       .  S
N2213      O2223   1.262       .  A
N2213      O2224   1.262       .  A
N2215      O2221   1.262       .  A
N2215      O2222   1.262       .  A
C2225      C2226   1.406       .  A
C2225      C2230   1.407       .  A
C2225      H2235   1.083       .  S
C2226      C2231   1.494       .  S
C2226      C2227   1.409       .  A
C2227      C2228   1.398       .  A
C2227      N2232   1.429       .  S
C2228      C2229   1.410       .  A
C2228      H2233   1.084       .  S
C2229      C2230   1.418       .  A
C2230      N2234   1.428       .  S
C2231      C2236   1.409       .  A
C2231      C2240   1.405       .  A
N2232      O2247   1.262       .  A
N2232      O2248   1.262       .  A
N2234      O2245   1.262       .  A
N2234      O2246   1.262       .  A
C2236      C2237   1.399       .  A
C2236      N2241   1.429       .  S
C2237      C2238   1.409       .  A
C2237      H2242   1.083       .  S
C2238      C2239   1.419       .  A
C2239      C2240   1.408       .  A
C2239      N2243   1.429       .  S
C2240      H2244   1.083       .  S
N2241      O2251   1.262       .  A
N2241      O2252   1.262       .  A
N2243      O2249   1.262       .  A
N2243      O2250   1.262       .  A
C2253      C2254   1.405       .  A
C2253      C2258   1.400       .  A
C2253      H2263   1.083       .  S
C2254      C2259   1.495       .  S
C2254      C2255   1.417       .  A
C2255      C2256   1.403       .  A
C2255      N2260   1.429       .  S
C2256      C2257   1.400       .  A
C2256      H2261   1.084       .  S
C2257      C2258   1.411       .  A
C2258      N2262   1.429       .  S
C2259      C2264   1.416       .  A
C2259      C2268   1.406       .  A
N2260      O2275   1.262       .  A
N2260      O2276   1.262       .  A
N2262      O2273   1.262       .  A
N2262      O2274   1.262       .  A
C2264      C2265   1.398       .  A
C2264      N2269   1.429       .  S
C2265      C2266   1.400       .  A
C2265      H2270   1.084       .  S
C2266      C2267   1.413       .  A
C2267      C2268   1.403       .  A
C2267      N2271   1.429       .  S
C2268      H2272   1.083       .  S
N2269      O2279   1.262       .  A
N2269      O2280   1.262       .  A
N2271      O2277   1.262       .  A
N2271      O2278   1.262       .  A
C2281      C2282   1.403       .  A
C2281      C2286   1.398       .  A
C2281      H2291   1.082       .  S
C2282      C2287   1.488       .  S
C2282      C2283   1.415       .  A
C2283      C2284   1.398       .  A
C2283      N2288   1.429       .  S
C2284      C2285   1.402       .  A
C2284      H2289   1.084       .  S
C2285      C2286   1.413       .  A
C2286      N2290   1.429       .  S
C2287      C2292   1.415       .  A
C2287      C2296   1.400       .  A
N2288      O2303   1.262       .  A
N2288      O2304   1.261       .  A
N2290      O2301   1.262       .  A
N2290      O2302   1.262       .  A
C2292      C2293   1.401       .  A
C2292      N2297   1.429       .  S
C2293      C2294   1.403       .  A
C2293      H2298   1.084       .  S
C2294      C2295   1.417       .  A
C2295      C2296   1.398       .  A
C2295      N2299   1.427       .  S
C2296      H2300   1.083       .  S
N2297      O2307   1.262       .  A
N2297      O2308   1.261       .  A
N2299      O2305   1.262       .  A
N2299      O2306   1.262       .  A
C2309      C2310   1.402       .  A
C2309      C2314   1.404       .  A
C2309      H2319   1.084   1_556  S
C2310      C2315   1.496       .  S
C2310      C2311   1.412       .  A
C2311      C2312   1.406       .  A
C2311      N2316   1.428       .  S
C2312      C2313   1.409       .  A
C2312      H2317   1.083       .  S
C2313      C2314   1.421       .  A
C2314      N2318   1.429       .  S
C2315      C2320   1.410       .  A
C2315      C2324   1.406   1_556  A
N2316      O2331   1.262       .  A
N2316      O2332   1.262       .  A
N2318      O2329   1.262       .  A
N2318      O2330   1.262   1_556  A
C2320      C2321   1.403       .  A
C2320      N2325   1.429       .  S
C2321      C2322   1.411   1_556  A
C2321      H2326   1.083   1_565  S
C2322      C2323   1.418       .  A
C2323      C2324   1.409       .  A
C2323      N2327   1.428       .  S
C2324      H2328   1.084       .  S
N2325      O2335   1.262       .  A
N2325      O2336   1.262       .  A
N2327      O2333   1.262       .  A
N2327      O2334   1.262       .  A
C2337      C2338   1.408       .  A
C2337      C2342   1.408       .  A
C2337      H2347   1.084       .  S
C2338      C2343   1.487       .  S
C2338      C2339   1.407       .  A
C2339      C2340   1.396       .  A
C2339      N2344   1.429       .  S
C2340      C2341   1.407       .  A
C2340      H2345   1.084       .  S
C2341      C2342   1.412       .  A
C2342      N2346   1.429       .  S
C2343      C2348   1.415       .  A
C2343      C2352   1.400       .  A
N2344      O2359   1.262       .  A
N2344      O2360   1.262       .  A
N2346      O2357   1.262       .  A
N2346      O2358   1.262       .  A
C2348      C2349   1.405       .  A
C2348      N2353   1.429       .  S
C2349      C2350   1.402       .  A
C2349      H2354   1.084       .  S
C2350      C2351   1.416       .  A
C2351      C2352   1.401       .  A
C2351      N2355   1.429       .  S
C2352      H2356   1.084       .  S
N2353      O2363   1.262       .  A
N2353      O2364   1.262       .  A
N2355      O2361   1.262       .  A
N2355      O2362   1.262       .  A
C2365      C2366   1.402       .  A
C2365      C2370   1.398       .  A
C2365      H2375   1.084       .  S
C2366      C2371   1.487       .  S
C2366      C2367   1.412       .  A
C2367      C2368   1.403       .  A
C2367      N2372   1.428       .  S
C2368      C2369   1.405       .  A
C2368      H2373   1.084   1_554  S
C2369      C2370   1.415       .  A
C2370      N2374   1.430       .  S
C2371      C2376   1.411       .  A
C2371      C2380   1.405       .  A
N2372      O2387   1.262       .  A
N2372      O2388   1.262       .  A
N2374      O2385   1.262       .  A
N2374      O2386   1.262       .  A
C2376      C2377   1.399       .  A
C2376      N2381   1.429       .  S
C2377      C2378   1.405       .  A
C2377      H2382   1.084       .  S
C2378      C2379   1.414       .  A
C2379      C2380   1.405       .  A
C2379      N2383   1.429       .  S
C2380      H2384   1.084       .  S
N2381      O2391   1.262       .  A
N2381      O2392   1.262       .  A
N2383      O2389   1.262       .  A
N2383      O2390   1.262       .  A
C2393      C2394   1.407       .  A
C2393      C2398   1.406       .  A
C2393      H2403   1.084       .  S
C2394      C2399   1.491       .  S
C2394      C2395   1.410       .  A
C2395      C2396   1.400       .  A
C2395      N2400   1.429       .  S
C2396      C2397   1.409       .  A
C2396      H2401   1.084       .  S
C2397      C2398   1.414       .  A
C2398      N2402   1.428       .  S
C2399      C2404   1.414       .  A
C2399      C2408   1.403       .  A
N2400      O2415   1.262       .  A
N2400      O2416   1.262       .  A
N2402      O2413   1.262       .  A
N2402      O2414   1.262       .  A
C2404      C2405   1.404       .  A
C2404      N2409   1.429       .  S
C2405      C2406   1.406       .  A
C2405      H2410   1.084       .  S
C2406      C2407   1.414       .  A
C2407      C2408   1.401       .  A
C2407      N2411   1.429       .  S
C2408      H2412   1.084       .  S
N2409      O2419   1.262       .  A
N2409      O2420   1.262       .  A
N2411      O2417   1.262       .  A
N2411      O2418   1.262       .  A
C2421      C2422   1.404       .  A
C2421      C2426   1.406       .  A
C2421      H2431   1.084       .  S
C2422      C2427   1.489       .  S
C2422      C2423   1.407       .  A
C2423      C2424   1.399       .  A
C2423      N2428   1.428       .  S
C2424      C2425   1.409       .  A
C2424      H2429   1.083       .  S
C2425      C2426   1.416       .  A
C2426      N2430   1.427       .  S
C2427      C2432   1.408       .  A
C2427      C2436   1.405       .  A
N2428      O2443   1.262       .  A
N2428      O2444   1.262       .  A
N2430      O2441   1.262       .  A
N2430      O2442   1.262       .  A
C2432      C2433   1.399       .  A
C2432      N2437   1.428       .  S
C2433      C2434   1.405       .  A
C2433      H2438   1.084       .  S
C2434      C2435   1.417       .  A
C2435      C2436   1.407       .  A
C2435      N2439   1.429       .  S
C2436      H2440   1.084       .  S
N2437      O2447   1.262       .  A
N2437      O2448   1.262       .  A
N2439      O2445   1.262       .  A
N2439      O2446   1.262       .  A
C2449      C2450   1.402       .  A
C2449      C2454   1.405       .  A
C2449      H2459   1.083       .  S
C2450      C2455   1.493       .  S
C2450      C2451   1.414       .  A
C2451      C2452   1.402       .  A
C2451      N2456   1.430       .  S
C2452      C2453   1.406       .  A
C2452      H2457   1.084       .  S
C2453      C2454   1.419       .  A
C2454      N2458   1.429       .  S
C2455      C2460   1.415       .  A
C2455      C2464   1.400       .  A
N2456      O2471   1.262       .  A
N2456      O2472   1.261       .  A
N2458      O2469   1.262       .  A
N2458      O2470   1.262       .  A
C2460      C2461   1.408       .  A
C2460      N2465   1.428       .  S
C2461      C2462   1.405       .  A
C2461      H2466   1.084       .  S
C2462      C2463   1.418       .  A
C2463      C2464   1.397       .  A
C2463      N2467   1.429       .  S
C2464      H2468   1.083       .  S
N2465      O2475   1.262       .  A
N2465      O2476   1.262       .  A
N2467      O2473   1.262       .  A
N2467      O2474   1.262       .  A
C2477      C2478   1.403       .  A
C2477      C2482   1.404       .  A
C2477      H2487   1.084       .  S
C2478      C2483   1.490       .  S
C2478      C2479   1.415       .  A
C2479      C2480   1.403       .  A
C2479      N2484   1.429       .  S
C2480      C2481   1.401       .  A
C2480      H2485   1.084       .  S
C2481      C2482   1.413       .  A
C2482      N2486   1.429       .  S
C2483      C2488   1.408       .  A
C2483      C2492   1.406       .  A
N2484      O2499   1.262       .  A
N2484      O2500   1.262       .  A
N2486      O2497   1.262       .  A
N2486      O2498   1.262       .  A
C2488      C2489   1.399       .  A
C2488      N2493   1.429       .  S
C2489      C2490   1.409       .  A
C2489      H2494   1.084       .  S
C2490      C2491   1.413       .  A
C2491      C2492   1.407       .  A
C2491      N2495   1.427       .  S
C2492      H2496   1.084       .  S
N2493      O2503   1.262       .  A
N2493      O2504   1.262       .  A
N2495      O2501   1.262       .  A
N2495      O2502   1.262       .  A
C2505      C2506   1.402       .  A
C2505      C2510   1.402       .  A
C2505      H2515   1.084       .  S
C2506      C2511   1.494       .  S
C2506      C2507   1.414       .  A
C2507      C2508   1.408       .  A
C2507      N2512   1.428       .  S
C2508      C2509   1.406       .  A
C2508      H2513   1.084       .  S
C2509      C2510   1.417       .  A
C2510      N2514   1.429       .  S
C2511      C2516   1.414       .  A
C2511      C2520   1.402       .  A
N2512      O2527   1.262       .  A
N2512      O2528   1.262       .  A
N2514      O2525   1.262       .  A
N2514      O2526   1.262       .  A
C2516      C2517   1.409       .  A
C2516      N2521   1.428       .  S
C2517      C2518   1.406       .  A
C2517      H2522   1.084   1_554  S
C2518      C2519   1.417       .  A
C2519      C2520   1.402       .  A
C2519      N2523   1.429       .  S
C2520      H2524   1.084       .  S
N2521      O2531   1.262       .  A
N2521      O2532   1.262       .  A
N2523      O2529   1.262       .  A
N2523      O2530   1.262       .  A
C2533      C2534   1.403       .  A
C2533      C2538   1.404       .  A
C2533      H2543   1.084       .  S
C2534      C2539   1.489       .  S
C2534      C2535   1.412       .  A
C2535      C2536   1.400       .  A
C2535      N2540   1.428       .  S
C2536      C2537   1.404       .  A
C2536      H2541   1.084       .  S
C2537      C2538   1.417       .  A
C2538      N2542   1.430       .  S
C2539      C2544   1.412       .  A
C2539      C2548   1.402       .  A
N2540      O2555   1.262       .  A
N2540      O2556   1.262       .  A
N2542      O2553   1.262       .  A
N2542      O2554   1.262       .  A
C2544      C2545   1.406       .  A
C2544      N2549   1.428       .  S
C2545      C2546   1.405       .  A
C2545      H2550   1.084       .  S
C2546      C2547   1.414       .  A
C2547      C2548   1.400       .  A
C2547      N2551   1.428       .  S
C2548      H2552   1.084       .  S
N2549      O2559   1.262       .  A
N2549      O2560   1.262       .  A
N2551      O2557   1.262       .  A
N2551      O2558   1.262       .  A
C2561      C2562   1.400       .  A
C2561      C2566   1.396       .  A
C2561      H2571   1.084       .  S
C2562      C2567   1.475       .  S
C2562      C2563   1.407       .  A
C2563      C2564   1.400       .  A
C2563      N2568   1.428       .  S
C2564      C2565   1.406       .  A
C2564      H2569   1.084       .  S
C2565      C2566   1.413       .  A
C2566      N2570   1.429       .  S
C2567      C2572   1.406       .  A
C2567      C2576   1.396       .  A
N2568      O2583   1.262       .  A
N2568      O2584   1.261       .  A
N2570      O2581   1.262       .  A
N2570      O2582   1.262       .  A
C2572      C2573   1.398       .  A
C2572      N2577   1.429       .  S
C2573      C2574   1.410       .  A
C2573      H2578   1.083       .  S
C2574      C2575   1.417       .  A
C2575      C2576   1.401       .  A
C2575      N2579   1.422       .  S
C2576      H2580   1.085       .  S
N2577      O2587   1.262       .  A
N2577      O2588   1.261       .  A
N2579      O2585   1.262       .  A
N2579      O2586   1.262       .  A
C2589      C2590   1.413       .  A
C2589      C2594   1.413       .  A
C2589      H2599   1.082       .  S
C2590      C2595   1.506       .  S
C2590      C2591   1.410       .  A
C2591      C2592   1.400       .  A
C2591      N2596   1.429       .  S
C2592      C2593   1.411       .  A
C2592      H2597   1.084       .  S
C2593      C2594   1.412       .  A
C2594      N2598   1.428       .  S
C2595      C2600   1.414       .  A
C2595      C2604   1.415       .  A
N2596      O2611   1.262       .  A
N2596      O2612   1.262       .  A
N2598      O2609   1.262       .  A
N2598      O2610   1.262       .  A
C2600      C2601   1.399       .  A
C2600      N2605   1.429       .  S
C2601      C2602   1.402       .  A
C2601      H2606   1.085       .  S
C2602      C2603   1.406       .  A
C2603      C2604   1.413       .  A
C2603      N2607   1.429       .  S
C2604      H2608   1.082       .  S
N2605      O2615   1.262       .  A
N2605      O2616   1.262       .  A
N2607      O2613   1.262       .  A
N2607      O2614   1.262       .  A
C2617      C2618   1.404       .  A
C2617      C2622   1.408       .  A
C2617      H2627   1.084       .  S
C2618      C2623   1.488       .  S
C2618      C2619   1.408       .  A
C2619      C2620   1.401       .  A
C2619      N2624   1.429       .  S
C2620      C2621   1.410       .  A
C2620      H2625   1.084       .  S
C2621      C2622   1.417       .  A
C2622      N2626   1.428       .  S
C2623      C2628   1.411       .  A
C2623      C2632   1.399       .  A
N2624      O2639   1.262       .  A
N2624      O2640   1.261       .  A
N2626      O2637   1.262       .  A
N2626      O2638   1.262       .  A
C2628      C2629   1.405       .  A
C2628      N2633   1.428       .  S
C2629      C2630   1.407       .  A
C2629      H2634   1.083       .  S
C2630      C2631   1.423       .  A
C2631      C2632   1.401       .  A
C2631      N2635   1.430       .  S
C2632      H2636   1.084       .  S
N2633      O2643   1.262       .  A
N2633      O2644   1.261       .  A
N2635      O2641   1.262       .  A
N2635      O2642   1.262       .  A
C2645      C2646   1.406       .  A
C2645      C2650   1.406       .  A
C2645      H2655   1.084       .  S
C2646      C2651   1.487       .  S
C2646      C2647   1.409       .  A
C2647      C2648   1.398       .  A
C2647      N2652   1.430       .  S
C2648      C2649   1.407       .  A
C2648      H2653   1.084       .  S
C2649      C2650   1.412       .  A
C2650      N2654   1.428       .  S
C2651      C2656   1.411       .  A
C2651      C2660   1.401       .  A
N2652      O2667   1.262       .  A
N2652      O2668   1.262       .  A
N2654      O2665   1.262       .  A
N2654      O2666   1.262       .  A
C2656      C2657   1.401       .  A
C2656      N2661   1.428       .  S
C2657      C2658   1.405       .  A
C2657      H2662   1.084       .  S
C2658      C2659   1.419       .  A
C2659      C2660   1.403       .  A
C2659      N2663   1.429       .  S
C2660      H2664   1.084       .  S
N2661      O2671   1.262       .  A
N2661      O2672   1.262       .  A
N2663      O2669   1.262       .  A
N2663      O2670   1.262       .  A
C2673      C2674   1.399       .  A
C2673      C2678   1.399       .  A
C2673      H2683   1.084   1_455  S
C2674      C2679   1.485   1_455  S
C2674      C2675   1.410       .  A
C2675      C2676   1.399       .  A
C2675      N2680   1.428       .  S
C2676      C2677   1.407       .  A
C2676      H2681   1.084       .  S
C2677      C2678   1.412       .  A
C2678      N2682   1.420       .  S
C2679      C2684   1.414       .  A
C2679      C2688   1.404       .  A
N2680      O2695   1.262       .  A
N2680      O2696   1.262       .  A
N2682      O2693   1.261   1_455  A
N2682      O2694   1.261       .  A
C2684      C2685   1.392       .  A
C2684      N2689   1.430       .  S
C2685      C2686   1.401       .  A
C2685      H2690   1.084       .  S
C2686      C2687   1.414       .  A
C2687      C2688   1.404       .  A
C2687      N2691   1.429       .  S
C2688      H2692   1.083   1_655  S
N2689      O2699   1.262       .  A
N2689      O2700   1.262       .  A
N2691      O2697   1.262       .  A
N2691      O2698   1.262       .  A
C2701      C2702   1.402       .  A
C2701      C2706   1.405       .  A
C2701      H2711   1.084       .  S
C2702      C2707   1.481       .  S
C2702      C2703   1.406       .  A
C2703      C2704   1.396       .  A
C2703      N2708   1.429       .  S
C2704      C2705   1.408       .  A
C2704      H2709   1.084       .  S
C2705      C2706   1.416       .  A
C2706      N2710   1.428       .  S
C2707      C2712   1.405       .  A
C2707      C2716   1.400   1_554  A
N2708      O2723   1.262   1_554  A
N2708      O2724   1.262       .  A
N2710      O2721   1.262       .  A
N2710      O2722   1.262       .  A
C2712      C2713   1.398       .  A
C2712      N2717   1.428       .  S
C2713      C2714   1.409   1_554  A
C2713      H2718   1.083       .  S
C2714      C2715   1.418       .  A
C2715      C2716   1.403       .  A
C2715      N2719   1.426       .  S
C2716      H2720   1.084       .  S
N2717      O2727   1.262       .  A
N2717      O2728   1.262       .  A
N2719      O2725   1.262       .  A
N2719      O2726   1.261       .  A
C2729      C2730   1.405       .  A
C2729      C2734   1.409       .  A
C2729      H2739   1.084       .  S
C2730      C2735   1.492       .  S
C2730      C2731   1.410       .  A
C2731      C2732   1.399       .  A
C2731      N2736   1.429   1_556  S
C2732      C2733   1.409       .  A
C2732      H2737   1.084       .  S
C2733      C2734   1.418       .  A
C2734      N2738   1.428       .  S
C2735      C2740   1.412   1_556  A
C2735      C2744   1.401       .  A
N2736      O2751   1.262   1_554  A
N2736      O2752   1.262       .  A
N2738      O2749   1.262       .  A
N2738      O2750   1.262       .  A
C2740      C2741   1.403       .  A
C2740      N2745   1.429       .  S
C2741      C2742   1.407   1_455  A
C2741      H2746   1.083       .  S
C2742      C2743   1.419   1_554  A
C2743      C2744   1.403   1_655  A
C2743      N2747   1.429       .  S
C2744      H2748   1.084       .  S
N2745      O2755   1.262       .  A
N2745      O2756   1.262       .  A
N2747      O2753   1.262       .  A
N2747      O2754   1.262       .  A
C2757      C2758   1.403       .  A
C2757      C2762   1.401       .  A
C2757      H2767   1.083       .  S
C2758      C2763   1.485       .  S
C2758      C2759   1.412       .  A
C2759      C2760   1.399       .  A
C2759      N2764   1.429       .  S
C2760      C2761   1.400       .  A
C2760      H2765   1.084       .  S
C2761      C2762   1.410       .  A
C2762      N2766   1.429       .  S
C2763      C2768   1.409       .  A
C2763      C2772   1.401       .  A
N2764      O2779   1.262       .  A
N2764      O2780   1.262       .  A
N2766      O2777   1.262       .  A
N2766      O2778   1.262       .  A
C2768      C2769   1.399       .  A
C2768      N2773   1.428       .  S
C2769      C2770   1.407       .  A
C2769      H2774   1.083       .  S
C2770      C2771   1.421       .  A
C2771      C2772   1.401       .  A
C2771      N2775   1.429       .  S
C2772      H2776   1.084       .  S
N2773      O2783   1.262       .  A
N2773      O2784   1.262       .  A
N2775      O2781   1.262       .  A
N2775      O2782   1.262       .  A
C2785      C2786   1.411       .  A
C2785      C2790   1.413       .  A
C2785      H2795   1.082       .  S
C2786      C2791   1.504       .  S
C2786      C2787   1.411       .  A
C2787      C2788   1.400       .  A
C2787      N2792   1.429       .  S
C2788      C2789   1.410       .  A
C2788      H2793   1.084       .  S
C2789      C2790   1.413       .  A
C2790      N2794   1.427       .  S
C2791      C2796   1.413       .  A
C2791      C2800   1.410       .  A
N2792      O2807   1.262       .  A
N2792      O2808   1.262       .  A
N2794      O2805   1.262       .  A
N2794      O2806   1.262       .  A
C2796      C2797   1.404       .  A
C2796      N2801   1.429       .  S
C2797      C2798   1.407   1_455  A
C2797      H2802   1.084       .  S
C2798      C2799   1.412       .  A
C2799      C2800   1.409   1_655  A
C2799      N2803   1.428       .  S
C2800      H2804   1.082   1_455  S
N2801      O2811   1.262       .  A
N2801      O2812   1.262       .  A
N2803      O2809   1.262       .  A
N2803      O2810   1.262       .  A
C2813      C2814   1.399       .  A
C2813      C2818   1.396       .  A
C2813      H2823   1.084       .  S
C2814      C2819   1.483       .  S
C2814      C2815   1.412       .  A
C2815      C2816   1.403       .  A
C2815      N2820   1.429       .  S
C2816      C2817   1.405       .  A
C2816      H2821   1.084       .  S
C2817      C2818   1.416       .  A
C2818      N2822   1.429       .  S
C2819      C2824   1.413       .  A
C2819      C2828   1.402       .  A
N2820      O2835   1.262       .  A
N2820      O2836   1.262       .  A
N2822      O2833   1.262       .  A
N2822      O2834   1.262       .  A
C2824      C2825   1.400       .  A
C2824      N2829   1.428       .  S
C2825      C2826   1.397       .  A
C2825      H2830   1.084       .  S
C2826      C2827   1.411       .  A
C2827      C2828   1.401       .  A
C2827      N2831   1.429       .  S
C2828      H2832   1.084       .  S
N2829      O2839   1.262       .  A
N2829      O2840   1.262       .  A
N2831      O2837   1.261       .  A
N2831      O2838   1.261       .  A
C2841      C2842   1.399       .  A
C2841      C2846   1.400       .  A
C2841      H2851   1.084       .  S
C2842      C2847   1.489       .  S
C2842      C2843   1.411       .  A
C2843      C2844   1.406       .  A
C2843      N2848   1.428       .  S
C2844      C2845   1.407       .  A
C2844      H2849   1.083       .  S
C2845      C2846   1.417       .  A
C2846      N2850   1.426       .  S
C2847      C2852   1.411       .  A
C2847      C2856   1.400       .  A
N2848      O2863   1.262       .  A
N2848      O2864   1.262       .  A
N2850      O2861   1.262       .  A
N2850      O2862   1.262       .  A
C2852      C2853   1.403       .  A
C2852      N2857   1.428       .  S
C2853      C2854   1.406       .  A
C2853      H2858   1.083       .  S
C2854      C2855   1.423       .  A
C2855      C2856   1.403       .  A
C2855      N2859   1.430       .  S
C2856      H2860   1.084       .  S
N2857      O2867   1.262       .  A
N2857      O2868   1.262       .  A
N2859      O2865   1.262       .  A
N2859      O2866   1.262       .  A
C2869      C2870   1.405       .  A
C2869      C2874   1.403       .  A
C2869      H2879   1.083       .  S
C2870      C2875   1.488       .  S
C2870      C2871   1.412       .  A
C2871      C2872   1.396       .  A
C2871      N2876   1.429       .  S
C2872      C2873   1.404       .  A
C2872      H2877   1.084       .  S
C2873      C2874   1.414       .  A
C2874      N2878   1.428       .  S
C2875      C2880   1.411       .  A
C2875      C2884   1.401       .  A
N2876      O2891   1.262       .  A
N2876      O2892   1.261       .  A
N2878      O2889   1.260       .  A
N2878      O2890   1.262       .  A
C2880      C2881   1.400       .  A
C2880      N2885   1.429       .  S
C2881      C2882   1.409       .  A
C2881      H2886   1.084       .  S
C2882      C2883   1.410       .  A
C2883      C2884   1.400       .  A
C2883      N2887   1.419       .  S
C2884      H2888   1.083       .  S
N2885      O2895   1.262       .  A
N2885      O2896   1.261       .  A
N2887      O2893   1.261       .  A
N2887      O2894   1.261       .  A
C2897      C2898   1.398       .  A
C2897      C2902   1.398       .  A
C2897      H2907   1.084       .  S
C2898      C2903   1.473       .  S
C2898      C2899   1.409       .  A
C2899      C2900   1.391       .  A
C2899      N2904   1.429       .  S
C2900      C2901   1.404       .  A
C2900      H2905   1.084       .  S
C2901      C2902   1.417       .  A
C2902      N2906   1.427       .  S
C2903      C2908   1.411       .  A
C2903      C2912   1.400       .  A
N2904      O2919   1.262       .  A
N2904      O2920   1.262       .  A
N2906      O2917   1.260       .  A
N2906      O2918   1.261       .  A
C2908      C2909   1.393       .  A
C2908      N2913   1.430       .  S
C2909      C2910   1.401       .  A
C2909      H2914   1.084       .  S
C2910      C2911   1.412       .  A
C2911      C2912   1.397       .  A
C2911      N2915   1.429   1_556  S
C2912      H2916   1.084       .  S
N2913      O2923   1.262       .  A
N2913      O2924   1.262       .  A
N2915      O2921   1.262       .  A
N2915      O2922   1.262       .  A
C2925      C2926   1.400       .  A
C2925      C2930   1.398       .  A
C2925      H2935   1.084       .  S
C2926      C2931   1.481   1_655  S
C2926      C2927   1.410       .  A
C2927      C2928   1.400       .  A
C2927      N2932   1.429   1_655  S
C2928      C2929   1.406       .  A
C2928      H2933   1.084       .  S
C2929      C2930   1.417       .  A
C2930      N2934   1.429       .  S
C2931      C2936   1.406       .  A
C2931      C2940   1.402   1_455  A
N2932      O2947   1.262       .  A
N2932      O2948   1.262       .  A
N2934      O2945   1.262       .  A
N2934      O2946   1.262       .  A
C2936      C2937   1.397       .  A
C2936      N2941   1.429       .  S
C2937      C2938   1.409       .  A
C2937      H2942   1.083       .  S
C2938      C2939   1.416   1_455  A
C2939      C2940   1.402       .  A
C2939      N2943   1.427       .  S
C2940      H2944   1.084       .  S
N2941      O2951   1.262       .  A
N2941      O2952   1.262       .  A
N2943      O2949   1.261       .  A
N2943      O2950   1.262       .  A
C2953      C2954   1.403       .  A
C2953      C2958   1.405       .  A
C2953      H2963   1.084       .  S
C2954      C2959   1.478       .  S
C2954      C2955   1.406       .  A
C2955      C2956   1.394       .  A
C2955      N2960   1.429       .  S
C2956      C2957   1.405       .  A
C2956      H2961   1.084       .  S
C2957      C2958   1.414       .  A
C2958      N2962   1.428       .  S
C2959      C2964   1.405       .  A
C2959      C2968   1.401       .  A
N2960      O2975   1.262       .  A
N2960      O2976   1.262       .  A
N2962      O2973   1.262       .  A
N2962      O2974   1.262       .  A
C2964      C2965   1.397       .  A
C2964      N2969   1.428       .  S
C2965      C2966   1.407       .  A
C2965      H2970   1.084   1_565  S
C2966      C2967   1.417       .  A
C2967      C2968   1.401       .  A
C2967      N2971   1.429       .  S
C2968      H2972   1.084       .  S
N2969      O2979   1.262       .  A
N2969      O2980   1.262       .  A
N2971      O2977   1.262       .  A
N2971      O2978   1.261       .  A
C2981      C2982   1.403       .  A
C2981      C2986   1.403       .  A
C2981      H2991   1.083       .  S
C2982      C2987   1.498       .  S
C2982      C2983   1.414       .  A
C2983      C2984   1.405       .  A
C2983      N2988   1.429       .  S
C2984      C2985   1.405       .  A
C2984      H2989   1.084   1_655  S
C2985      C2986   1.414       .  A
C2986      N2990   1.426       .  S
C2987      C2992   1.416       .  A
C2987      C2996   1.407       .  A
N2988      O3003   1.262       .  A
N2988      O3004   1.262       .  A
N2990      O3001   1.261       .  A
N2990      O3002   1.262       .  A
C2992      C2993   1.404       .  A
C2992      N2997   1.429       .  S
C2993      C2994   1.401       .  A
C2993      H2998   1.084       .  S
C2994      C2995   1.410       .  A
C2995      C2996   1.404       .  A
C2995      N2999   1.428       .  S
C2996      H3000   1.083       .  S
N2997      O3007   1.262       .  A
N2997      O3008   1.262       .  A
N2999      O3005   1.262       .  A
N2999      O3006   1.262       .  A
C3009      C3010   1.398       .  A
C3009      C3014   1.401       .  A
C3009      H3019   1.084       .  S
C3010      C3015   1.486       .  S
C3010      C3011   1.410       .  A
C3011      C3012   1.405       .  A
C3011      N3016   1.428       .  S
C3012      C3013   1.408       .  A
C3012      H3017   1.084       .  S
C3013      C3014   1.412       .  A
C3014      N3018   1.419       .  S
C3015      C3020   1.411       .  A
C3015      C3024   1.402       .  A
N3016      O3031   1.262       .  A
N3016      O3032   1.261       .  A
N3018      O3029   1.260       .  A
N3018      O3030   1.262       .  A
C3020      C3021   1.404       .  A
C3020      N3025   1.428       .  S
C3021      C3022   1.403       .  A
C3021      H3026   1.084       .  S
C3022      C3023   1.416       .  A
C3023      C3024   1.402       .  A
C3023      N3027   1.430       .  S
C3024      H3028   1.084       .  S
N3025      O3035   1.262       .  A
N3025      O3036   1.261       .  A
N3027      O3033   1.262       .  A
N3027      O3034   1.262       .  A
C3037      C3038   1.409       .  A
C3037      C3042   1.406       .  A
C3037      H3047   1.083       .  S
C3038      C3043   1.492       .  S
C3038      C3039   1.410       .  A
C3039      C3040   1.397       .  A
C3039      N3044   1.429       .  S
C3040      C3041   1.405       .  A
C3040      H3045   1.084       .  S
C3041      C3042   1.411       .  A
C3042      N3046   1.429   1_655  S
C3043      C3048   1.409       .  A
C3043      C3052   1.407       .  A
N3044      O3059   1.262       .  A
N3044      O3060   1.262       .  A
N3046      O3057   1.262       .  A
N3046      O3058   1.262       .  A
C3048      C3049   1.398       .  A
C3048      N3053   1.429       .  S
C3049      C3050   1.408       .  A
C3049      H3054   1.084       .  S
C3050      C3051   1.412       .  A
C3051      C3052   1.407       .  A
C3051      N3055   1.427       .  S
C3052      H3056   1.083       .  S
N3053      O3063   1.262       .  A
N3053      O3064   1.261       .  A
N3055      O3061   1.262       .  A
N3055      O3062   1.262       .  A
C3065      C3066   1.406       .  A
C3065      C3070   1.412       .  A
C3065      H3075   1.084       .  S
C3066      C3071   1.493       .  S
C3066      C3067   1.407       .  A
C3067      C3068   1.399       .  A
C3067      N3072   1.429       .  S
C3068      C3069   1.410       .  A
C3068      H3073   1.084       .  S
C3069      C3070   1.418       .  A
C3070      N3074   1.428       .  S
C3071      C3076   1.412       .  A
C3071      C3080   1.401       .  A
N3072      O3087   1.262       .  A
N3072      O3088   1.262       .  A
N3074      O3085   1.261       .  A
N3074      O3086   1.262       .  A
C3076      C3077   1.408       .  A
C3076      N3081   1.428       .  S
C3077      C3078   1.404       .  A
C3077      H3082   1.083       .  S
C3078      C3079   1.416       .  A
C3079      C3080   1.404       .  A
C3079      N3083   1.429       .  S
C3080      H3084   1.084       .  S
N3081      O3091   1.262       .  A
N3081      O3092   1.262       .  A
N3083      O3089   1.262       .  A
N3083      O3090   1.262       .  A
C3093      C3094   1.404       .  A
C3093      C3098   1.407       .  A
C3093      H3103   1.084       .  S
C3094      C3099   1.485       .  S
C3094      C3095   1.405       .  A
C3095      C3096   1.397       .  A
C3095      N3100   1.429       .  S
C3096      C3097   1.409       .  A
C3096      H3101   1.083       .  S
C3097      C3098   1.417       .  A
C3098      N3102   1.429       .  S
C3099      C3104   1.404       .  A
C3099      C3108   1.404       .  A
N3100      O3115   1.262       .  A
N3100      O3116   1.262       .  A
N3102      O3113   1.262       .  A
N3102      O3114   1.262       .  A
C3104      C3105   1.397       .  A
C3104      N3109   1.429       .  S
C3105      C3106   1.411       .  A
C3105      H3110   1.083       .  S
C3106      C3107   1.419       .  A
C3107      C3108   1.408       .  A
C3107      N3111   1.428       .  S
C3108      H3112   1.084       .  S
N3109      O3119   1.262       .  A
N3109      O3120   1.262       .  A
N3111      O3117   1.262       .  A
N3111      O3118   1.262       .  A
C3121      C3122   1.399       .  A
C3121      C3126   1.397       .  A
C3121      H3131   1.084       .  S
C3122      C3127   1.486   1_455  S
C3122      C3123   1.415       .  A
C3123      C3124   1.401       .  A
C3123      N3128   1.428       .  S
C3124      C3125   1.401       .  A
C3124      H3129   1.083       .  S
C3125      C3126   1.418       .  A
C3126      N3130   1.431       .  S
C3127      C3132   1.416       .  A
C3127      C3136   1.400       .  A
N3128      O3143   1.262       .  A
N3128      O3144   1.261       .  A
N3130      O3141   1.262       .  A
N3130      O3142   1.262       .  A
C3132      C3133   1.402       .  A
C3132      N3137   1.429       .  S
C3133      C3134   1.399       .  A
C3133      H3138   1.084       .  S
C3134      C3135   1.413       .  A
C3135      C3136   1.398       .  A
C3135      N3139   1.429       .  S
C3136      H3140   1.083       .  S
N3137      O3147   1.262       .  A
N3137      O3148   1.262       .  A
N3139      O3145   1.262       .  A
N3139      O3146   1.262       .  A
C3149      C3150   1.401       .  A
C3149      C3154   1.401       .  A
C3149      H3159   1.084       .  S
C3150      C3155   1.477       .  S
C3150      C3151   1.409       .  A
C3151      C3152   1.393       .  A
C3151      N3156   1.430       .  S
C3152      C3153   1.403       .  A
C3152      H3157   1.084       .  S
C3153      C3154   1.414       .  A
C3154      N3158   1.428       .  S
C3155      C3160   1.406       .  A
C3155      C3164   1.395       .  A
N3156      O3171   1.262       .  A
N3156      O3172   1.262       .  A
N3158      O3169   1.262       .  A
N3158      O3170   1.262       .  A
C3160      C3161   1.396       .  A
C3160      N3165   1.428       .  S
C3161      C3162   1.407       .  A
C3161      H3166   1.084       .  S
C3162      C3163   1.417       .  A
C3163      C3164   1.400       .  A
C3163      N3167   1.422       .  S
C3164      H3168   1.084       .  S
N3165      O3175   1.262       .  A
N3165      O3176   1.262       .  A
N3167      O3173   1.262       .  A
N3167      O3174   1.262       .  A
C3177      C3178   1.406       .  A
C3177      C3182   1.406       .  A
C3177      H3187   1.084       .  S
C3178      C3183   1.493       .  S
C3178      C3179   1.411       .  A
C3179      C3180   1.402       .  A
C3179      N3184   1.429       .  S
C3180      C3181   1.407       .  A
C3180      H3185   1.084       .  S
C3181      C3182   1.414       .  A
C3182      N3186   1.428       .  S
C3183      C3188   1.413       .  A
C3183      C3192   1.403       .  A
N3184      O3199   1.262       .  A
N3184      O3200   1.262       .  A
N3186      O3197   1.262       .  A
N3186      O3198   1.261       .  A
C3188      C3189   1.404       .  A
C3188      N3193   1.429       .  S
C3189      C3190   1.406       .  A
C3189      H3194   1.084       .  S
C3190      C3191   1.416       .  A
C3191      C3192   1.404       .  A
C3191      N3195   1.429       .  S
C3192      H3196   1.084       .  S
N3193      O3203   1.262       .  A
N3193      O3204   1.262       .  A
N3195      O3201   1.262       .  A
N3195      O3202   1.262       .  A
C3205      C3206   1.400       .  A
C3205      C3210   1.403       .  A
C3205      H3215   1.084       .  S
C3206      C3211   1.486       .  S
C3206      C3207   1.409       .  A
C3207      C3208   1.402       .  A
C3207      N3212   1.429       .  S
C3208      C3209   1.408       .  A
C3208      H3213   1.083       .  S
C3209      C3210   1.421       .  A
C3210      N3214   1.429       .  S
C3211      C3216   1.408       .  A
C3211      C3220   1.404       .  A
N3212      O3227   1.262       .  A
N3212      O3228   1.261       .  A
N3214      O3225   1.262       .  A
N3214      O3226   1.262       .  A
C3216      C3217   1.396       .  A
C3216      N3221   1.429       .  S
C3217      C3218   1.408       .  A
C3217      H3222   1.084       .  S
C3218      C3219   1.418       .  A
C3219      C3220   1.408       .  A
C3219      N3223   1.429       .  S
C3220      H3224   1.084       .  S
N3221      O3231   1.262       .  A
N3221      O3232   1.262       .  A
N3223      O3229   1.262       .  A
N3223      O3230   1.262       .  A
C3233      C3234   1.404       .  A
C3233      C3238   1.405       .  A
C3233      H3243   1.084       .  S
C3234      C3239   1.486       .  S
C3234      C3235   1.409       .  A
C3235      C3236   1.398       .  A
C3235      N3240   1.429       .  S
C3236      C3237   1.406       .  A
C3236      H3241   1.084       .  S
C3237      C3238   1.413       .  A
C3238      N3242   1.428       .  S
C3239      C3244   1.407       .  A
C3239      C3248   1.403       .  A
N3240      O3255   1.262       .  A
N3240      O3256   1.262       .  A
N3242      O3253   1.262       .  A
N3242      O3254   1.262       .  A
C3244      C3245   1.399       .  A
C3244      N3249   1.428       .  S
C3245      C3246   1.408       .  A
C3245      H3250   1.084       .  S
C3246      C3247   1.417       .  A
C3247      C3248   1.405       .  A
C3247      N3251   1.429       .  S
C3248      H3252   1.084       .  S
N3249      O3259   1.262       .  A
N3249      O3260   1.262       .  A
N3251      O3257   1.262       .  A
N3251      O3258   1.262       .  A
C3261      C3262   1.403       .  A
C3261      C3266   1.401       .  A
C3261      H3271   1.084       .  S
C3262      C3267   1.493       .  S
C3262      C3263   1.414       .  A
C3263      C3264   1.403       .  A
C3263      N3268   1.429       .  S
C3264      C3265   1.405       .  A
C3264      H3269   1.084       .  S
C3265      C3266   1.417       .  A
C3266      N3270   1.429       .  S
C3267      C3272   1.411       .  A
C3267      C3276   1.407       .  A
N3268      O3283   1.262       .  A
N3268      O3284   1.262       .  A
N3270      O3281   1.262       .  A
N3270      O3282   1.262       .  A
C3272      C3273   1.399       .  A
C3272      N3277   1.429       .  S
C3273      C3274   1.407       .  A
C3273      H3278   1.084       .  S
C3274      C3275   1.414       .  A
C3275      C3276   1.406       .  A
C3275      N3279   1.429       .  S
C3276      H3280   1.084       .  S
N3277      O3287   1.262       .  A
N3277      O3288   1.262       .  A
N3279      O3285   1.262       .  A
N3279      O3286   1.261       .  A
C3289      C3290   1.404       .  A
C3289      C3294   1.403       .  A
C3289      H3299   1.084   1_556  S
C3290      C3295   1.491       .  S
C3290      C3291   1.414       .  A
C3291      C3292   1.403       .  A
C3291      N3296   1.428       .  S
C3292      C3293   1.401       .  A
C3292      H3297   1.084       .  S
C3293      C3294   1.411       .  A
C3294      N3298   1.429   1_556  S
C3295      C3300   1.412   1_556  A
C3295      C3304   1.404       .  A
N3296      O3311   1.262       .  A
N3296      O3312   1.262       .  A
N3298      O3309   1.262       .  A
N3298      O3310   1.262   1_554  A
C3300      C3301   1.401       .  A
C3300      N3305   1.429       .  S
C3301      C3302   1.403       .  A
C3301      H3306   1.084       .  S
C3302      C3303   1.415   1_554  A
C3303      C3304   1.404       .  A
C3303      N3307   1.429       .  S
C3304      H3308   1.083       .  S
N3305      O3315   1.262       .  A
N3305      O3316   1.262       .  A
N3307      O3313   1.262       .  A
N3307      O3314   1.262       .  A
C3317      C3318   1.401   1_556  A
C3317      C3322   1.401       .  A
C3317      H3327   1.084       .  S
C3318      C3323   1.482       .  S
C3318      C3319   1.407       .  A
C3319      C3320   1.398       .  A
C3319      N3324   1.428       .  S
C3320      C3321   1.407   1_554  A
C3320      H3325   1.084   1_655  S
C3321      C3322   1.417       .  A
C3322      N3326   1.427       .  S
C3323      C3328   1.409       .  A
C3323      C3332   1.402       .  A
N3324      O3339   1.262       .  A
N3324      O3340   1.262       .  A
N3326      O3337   1.261       .  A
N3326      O3338   1.262       .  A
C3328      C3329   1.396       .  A
C3328      N3333   1.429       .  S
C3329      C3330   1.405       .  A
C3329      H3334   1.084       .  S
C3330      C3331   1.415       .  A
C3331      C3332   1.402       .  A
C3331      N3335   1.428       .  S
C3332      H3336   1.084       .  S
N3333      O3343   1.262   1_554  A
N3333      O3344   1.262       .  A
N3335      O3341   1.262       .  A
N3335      O3342   1.262       .  A
C3345      C3346   1.402       .  A
C3345      C3350   1.400       .  A
C3345      H3355   1.084       .  S
C3346      C3351   1.479       .  S
C3346      C3347   1.409       .  A
C3347      C3348   1.398       .  A
C3347      N3352   1.428       .  S
C3348      C3349   1.404       .  A
C3348      H3353   1.083   1_554  S
C3349      C3350   1.413       .  A
C3350      N3354   1.429       .  S
C3351      C3356   1.406       .  A
C3351      C3360   1.403       .  A
N3352      O3367   1.262       .  A
N3352      O3368   1.261       .  A
N3354      O3365   1.262       .  A
N3354      O3366   1.262       .  A
C3356      C3357   1.395       .  A
C3356      N3361   1.430       .  S
C3357      C3358   1.407       .  A
C3357      H3362   1.083       .  S
C3358      C3359   1.418       .  A
C3359      C3360   1.407       .  A
C3359      N3363   1.428       .  S
C3360      H3364   1.084       .  S
N3361      O3371   1.262       .  A
N3361      O3372   1.261       .  A
N3363      O3369   1.262       .  A
N3363      O3370   1.262       .  A
C3373      C3374   1.406       .  A
C3373      C3378   1.408       .  A
C3373      H3383   1.084       .  S
C3374      C3379   1.492       .  S
C3374      C3375   1.408       .  A
C3375      C3376   1.399       .  A
C3375      N3380   1.429       .  S
C3376      C3377   1.409       .  A
C3376      H3381   1.084       .  S
C3377      C3378   1.416       .  A
C3378      N3382   1.428       .  S
C3379      C3384   1.409       .  A
C3379      C3388   1.406       .  A
N3380      O3395   1.262       .  A
N3380      O3396   1.262       .  A
N3382      O3393   1.262       .  A
N3382      O3394   1.262       .  A
C3384      C3385   1.401       .  A
C3384      N3389   1.428       .  S
C3385      C3386   1.407       .  A
C3385      H3390   1.084       .  S
C3386      C3387   1.415       .  A
C3387      C3388   1.406       .  A
C3387      N3391   1.429       .  S
C3388      H3392   1.083       .  S
N3389      O3399   1.262       .  A
N3389      O3400   1.262       .  A
N3391      O3397   1.262       .  A
N3391      O3398   1.262       .  A
C3401      C3402   1.399       .  A
C3401      C3406   1.399       .  A
C3401      H3411   1.084       .  S
C3402      C3407   1.484       .  S
C3402      C3403   1.411       .  A
C3403      C3404   1.407       .  A
C3403      N3408   1.428       .  S
C3404      C3405   1.406       .  A
C3404      H3409   1.084       .  S
C3405      C3406   1.415       .  A
C3406      N3410   1.429       .  S
C3407      C3412   1.410       .  A
C3407      C3416   1.399       .  A
N3408      O3423   1.262       .  A
N3408      O3424   1.262       .  A
N3410      O3421   1.262       .  A
N3410      O3422   1.262       .  A
C3412      C3413   1.406       .  A
C3412      N3417   1.428       .  S
C3413      C3414   1.407       .  A
C3413      H3418   1.084       .  S
C3414      C3415   1.419       .  A
C3415      C3416   1.399       .  A
C3415      N3419   1.429       .  S
C3416      H3420   1.084       .  S
N3417      O3427   1.262       .  A
N3417      O3428   1.261       .  A
N3419      O3425   1.262       .  A
N3419      O3426   1.262       .  A
C3429      C3430   1.402       .  A
C3429      C3434   1.405       .  A
C3429      H3439   1.084       .  S
C3430      C3435   1.477       .  S
C3430      C3431   1.406       .  A
C3431      C3432   1.395       .  A
C3431      N3436   1.429       .  S
C3432      C3433   1.407       .  A
C3432      H3437   1.084       .  S
C3433      C3434   1.416       .  A
C3434      N3438   1.429       .  S
C3435      C3440   1.407       .  A
C3435      C3444   1.397       .  A
N3436      O3451   1.262       .  A
N3436      O3452   1.261       .  A
N3438      O3449   1.262       .  A
N3438      O3450   1.262       .  A
C3440      C3441   1.400       .  A
C3440      N3445   1.428       .  S
C3441      C3442   1.407       .  A
C3441      H3446   1.083       .  S
C3442      C3443   1.422       .  A
C3443      C3444   1.400       .  A
C3443      N3447   1.429       .  S
C3444      H3448   1.084       .  S
N3445      O3455   1.262       .  A
N3445      O3456   1.261       .  A
N3447      O3453   1.262       .  A
N3447      O3454   1.262       .  A
C3457      C3458   1.400       .  A
C3457      C3462   1.400       .  A
C3457      H3467   1.083       .  S
C3458      C3463   1.492       .  S
C3458      C3459   1.415       .  A
C3459      C3460   1.402       .  A
C3459      N3464   1.429       .  S
C3460      C3461   1.404       .  A
C3460      H3465   1.083       .  S
C3461      C3462   1.422       .  A
C3462      N3466   1.430       .  S
C3463      C3468   1.415       .  A
C3463      C3472   1.400       .  A
N3464      O3479   1.262       .  A
N3464      O3480   1.262       .  A
N3466      O3477   1.262       .  A
N3466      O3478   1.262       .  A
C3468      C3469   1.405       .  A
C3468      N3473   1.429       .  S
C3469      C3470   1.408       .  A
C3469      H3474   1.083       .  S
C3470      C3471   1.420       .  A
C3471      C3472   1.398       .  A
C3471      N3475   1.430       .  S
C3472      H3476   1.083       .  S
N3473      O3483   1.262       .  A
N3473      O3484   1.262       .  A
N3475      O3481   1.262       .  A
N3475      O3482   1.262       .  A
C3485      C3486   1.402       .  A
C3485      C3490   1.399       .  A
C3485      H3495   1.083       .  S
C3486      C3491   1.491   1_455  S
C3486      C3487   1.414       .  A
C3487      C3488   1.402       .  A
C3487      N3492   1.429   1_455  S
C3488      C3489   1.405       .  A
C3488      H3493   1.084       .  S
C3489      C3490   1.417       .  A
C3490      N3494   1.429       .  S
C3491      C3496   1.415       .  A
C3491      C3500   1.403       .  A
N3492      O3507   1.262       .  A
N3492      O3508   1.262       .  A
N3494      O3505   1.262       .  A
N3494      O3506   1.262       .  A
C3496      C3497   1.399       .  A
C3496      N3501   1.429   1_655  S
C3497      C3498   1.403       .  A
C3497      H3502   1.084       .  S
C3498      C3499   1.418       .  A
C3499      C3500   1.400       .  A
C3499      N3503   1.429       .  S
C3500      H3504   1.083       .  S
N3501      O3511   1.262       .  A
N3501      O3512   1.262       .  A
N3503      O3509   1.262       .  A
N3503      O3510   1.262       .  A
C3513      C3514   1.400       .  A
C3513      C3518   1.401       .  A
C3513      H3523   1.084       .  S
C3514      C3519   1.484       .  S
C3514      C3515   1.409       .  A
C3515      C3516   1.402       .  A
C3515      N3520   1.428       .  S
C3516      C3517   1.407       .  A
C3516      H3521   1.083       .  S
C3517      C3518   1.420       .  A
C3518      N3522   1.430       .  S
C3519      C3524   1.409       .  A
C3519      C3528   1.403       .  A
N3520      O3535   1.262       .  A
N3520      O3536   1.261       .  A
N3522      O3533   1.262       .  A
N3522      O3534   1.262       .  A
C3524      C3525   1.400       .  A
C3524      N3529   1.430       .  S
C3525      C3526   1.407       .  A
C3525      H3530   1.084       .  S
C3526      C3527   1.414       .  A
C3527      C3528   1.404       .  A
C3527      N3531   1.428       .  S
C3528      H3532   1.084       .  S
N3529      O3539   1.262       .  A
N3529      O3540   1.261       .  A
N3531      O3537   1.262       .  A
N3531      O3538   1.262       .  A
C3541      C3542   1.403       .  A
C3541      C3546   1.406       .  A
C3541      H3551   1.084       .  S
C3542      C3547   1.478       .  S
C3542      C3543   1.405       .  A
C3543      C3544   1.395       .  A
C3543      N3548   1.428       .  S
C3544      C3545   1.405       .  A
C3544      H3549   1.084       .  S
C3545      C3546   1.413       .  A
C3546      N3550   1.428       .  S
C3547      C3552   1.403       .  A
C3547      C3556   1.401       .  A
N3548      O3563   1.262       .  A
N3548      O3564   1.262       .  A
N3550      O3561   1.262       .  A
N3550      O3562   1.262       .  A
C3552      C3553   1.397       .  A
C3552      N3557   1.428       .  S
C3553      C3554   1.410       .  A
C3553      H3558   1.084       .  S
C3554      C3555   1.419       .  A
C3555      C3556   1.405       .  A
C3555      N3559   1.428       .  S
C3556      H3560   1.084       .  S
N3557      O3567   1.262       .  A
N3557      O3568   1.262       .  A
N3559      O3565   1.262       .  A
N3559      O3566   1.262       .  A
C3569      C3570   1.400       .  A
C3569      C3574   1.403       .  A
C3569      H3579   1.084       .  S
C3570      C3575   1.481       .  S
C3570      C3571   1.410       .  A
C3571      C3572   1.403       .  A
C3571      N3576   1.428       .  S
C3572      C3573   1.402       .  A
C3572      H3577   1.084       .  S
C3573      C3574   1.414       .  A
C3574      N3578   1.429       .  S
C3575      C3580   1.405       .  A
C3575      C3584   1.404       .  A
N3576      O3591   1.262   1_655  A
N3576      O3592   1.261       .  A
N3578      O3589   1.262       .  A
N3578      O3590   1.262       .  A
C3580      C3581   1.398       .  A
C3580      N3585   1.428       .  S
C3581      C3582   1.406       .  A
C3581      H3586   1.084       .  S
C3582      C3583   1.412       .  A
C3583      C3584   1.406       .  A
C3583      N3587   1.428   1_655  S
C3584      H3588   1.084       .  S
N3585      O3595   1.262       .  A
N3585      O3596   1.262       .  A
N3587      O3593   1.262       .  A
N3587      O3594   1.262       .  A
C3597      C3598   1.398       .  A
C3597      C3602   1.396       .  A
C3597      H3607   1.085       .  S
C3598      C3603   1.482   1_455  S
C3598      C3599   1.409       .  A
C3599      C3600   1.406       .  A
C3599      N3604   1.427   1_455  S
C3600      C3601   1.407       .  A
C3600      H3605   1.083       .  S
C3601      C3602   1.421       .  A
C3602      N3606   1.430       .  S
C3603      C3608   1.409       .  A
C3603      C3612   1.403       .  A
N3604      O3619   1.262       .  A
N3604      O3620   1.261       .  A
N3606      O3617   1.262       .  A
N3606      O3618   1.262       .  A
C3608      C3609   1.400       .  A
C3608      N3613   1.428       .  S
C3609      C3610   1.404       .  A
C3609      H3614   1.084       .  S
C3610      C3611   1.415       .  A
C3611      C3612   1.404       .  A
C3611      N3615   1.429       .  S
C3612      H3616   1.084   1_655  S
N3613      O3623   1.262       .  A
N3613      O3624   1.262       .  A
N3615      O3621   1.262       .  A
N3615      O3622   1.262       .  A
C3625      C3626   1.401       .  A
C3625      C3630   1.396       .  A
C3625      H3635   1.084       .  S
C3626      C3631   1.470   1_656  S
C3626      C3627   1.408       .  A
C3627      C3628   1.396       .  A
C3627      N3632   1.428   1_655  S
C3628      C3629   1.401       .  A
C3628      H3633   1.084       .  S
C3629      C3630   1.409       .  A
C3630      N3634   1.429       .  S
C3631      C3636   1.404   1_554  A
C3631      C3640   1.395       .  A
N3632      O3647   1.262   1_556  A
N3632      O3648   1.261       .  A
N3634      O3645   1.262       .  A
N3634      O3646   1.262       .  A
C3636      C3637   1.397   1_556  A
C3636      N3641   1.427       .  S
C3637      C3638   1.408       .  A
C3637      H3642   1.083   1_554  S
C3638      C3639   1.412       .  A
C3639      C3640   1.396       .  A
C3639      N3643   1.420       .  S
C3640      H3644   1.085   1_455  S
N3641      O3651   1.262       .  A
N3641      O3652   1.261       .  A
N3643      O3649   1.261       .  A
N3643      O3650   1.260       .  A
C3653      C3654   1.404       .  A
C3653      C3658   1.405       .  A
C3653      H3663   1.084   1_655  S
C3654      C3659   1.483       .  S
C3654      C3655   1.407       .  A
C3655      C3656   1.397       .  A
C3655      N3660   1.429       .  S
C3656      C3657   1.406       .  A
C3656      H3661   1.084       .  S
C3657      C3658   1.414       .  A
C3658      N3662   1.429       .  S
C3659      C3664   1.405   1_655  A
C3659      C3668   1.402       .  A
N3660      O3675   1.262       .  A
N3660      O3676   1.262       .  A
N3662      O3673   1.262   1_655  A
N3662      O3674   1.262       .  A
C3664      C3665   1.397       .  A
C3664      N3669   1.428       .  S
C3665      C3666   1.409       .  A
C3665      H3670   1.083       .  S
C3666      C3667   1.418   1_455  A
C3667      C3668   1.405       .  A
C3667      N3671   1.428       .  S
C3668      H3672   1.084       .  S
N3669      O3679   1.262       .  A
N3669      O3680   1.262       .  A
N3671      O3677   1.262       .  A
N3671      O3678   1.261       .  A
C3681      C3682   1.403       .  A
C3681      C3686   1.403       .  A
C3681      H3691   1.083       .  S
C3682      C3687   1.491       .  S
C3682      C3683   1.415       .  A
C3683      C3684   1.400       .  A
C3683      N3688   1.429       .  S
C3684      C3685   1.400       .  A
C3684      H3689   1.084       .  S
C3685      C3686   1.414       .  A
C3686      N3690   1.429   1_545  S
C3687      C3692   1.415       .  A
C3687      C3696   1.403       .  A
N3688      O3703   1.262       .  A
N3688      O3704   1.262       .  A
N3690      O3701   1.262       .  A
N3690      O3702   1.262       .  A
C3692      C3693   1.403       .  A
C3692      N3697   1.429       .  S
C3693      C3694   1.402       .  A
C3693      H3698   1.084       .  S
C3694      C3695   1.411       .  A
C3695      C3696   1.399       .  A
C3695      N3699   1.429       .  S
C3696      H3700   1.083       .  S
N3697      O3707   1.262       .  A
N3697      O3708   1.262       .  A
N3699      O3705   1.262       .  A
N3699      O3706   1.262       .  A
C3709      C3710   1.398       .  A
C3709      C3714   1.396       .  A
C3709      H3719   1.084       .  S
C3710      C3715   1.483       .  S
C3710      C3711   1.412       .  A
C3711      C3712   1.404       .  A
C3711      N3716   1.428       .  S
C3712      C3713   1.404       .  A
C3712      H3717   1.084       .  S
C3713      C3714   1.416       .  A
C3714      N3718   1.428       .  S
C3715      C3720   1.412       .  A
C3715      C3724   1.399       .  A
N3716      O3731   1.262       .  A
N3716      O3732   1.261       .  A
N3718      O3729   1.262       .  A
N3718      O3730   1.261       .  A
C3720      C3721   1.400       .  A
C3720      N3725   1.429       .  S
C3721      C3722   1.404   1_455  A
C3721      H3726   1.084       .  S
C3722      C3723   1.420   1_655  A
C3723      C3724   1.399       .  A
C3723      N3727   1.430   1_455  S
C3724      H3728   1.084       .  S
N3725      O3735   1.262       .  A
N3725      O3736   1.261       .  A
N3727      O3733   1.262       .  A
N3727      O3734   1.262       .  A
C3737      C3738   1.404       .  A
C3737      C3742   1.403       .  A
C3737      H3747   1.083       .  S
C3738      C3743   1.492       .  S
C3738      C3739   1.410       .  A
C3739      C3740   1.402       .  A
C3739      N3744   1.428       .  S
C3740      C3741   1.407       .  A
C3740      H3745   1.084       .  S
C3741      C3742   1.414       .  A
C3742      N3746   1.428       .  S
C3743      C3748   1.409       .  A
C3743      C3752   1.406       .  A
N3744      O3759   1.262       .  A
N3744      O3760   1.262       .  A
N3746      O3757   1.260       .  A
N3746      O3758   1.262       .  A
C3748      C3749   1.399       .  A
C3748      N3753   1.430       .  S
C3749      C3750   1.409       .  A
C3749      H3754   1.084       .  S
C3750      C3751   1.416       .  A
C3751      C3752   1.408       .  A
C3751      N3755   1.428       .  S
C3752      H3756   1.083       .  S
N3753      O3763   1.262       .  A
N3753      O3764   1.262       .  A
N3755      O3761   1.262       .  A
N3755      O3762   1.262       .  A
C3765      C3766   1.407       .  A
C3765      C3770   1.404       .  A
C3765      H3775   1.084       .  S
C3766      C3771   1.484       .  S
C3766      C3767   1.407       .  A
C3767      C3768   1.397       .  A
C3767      N3772   1.429       .  S
C3768      C3769   1.406       .  A
C3768      H3773   1.084       .  S
C3769      C3770   1.410       .  A
C3770      N3774   1.428       .  S
C3771      C3776   1.416       .  A
C3771      C3780   1.400       .  A
N3772      O3787   1.262       .  A
N3772      O3788   1.262       .  A
N3774      O3785   1.262       .  A
N3774      O3786   1.262       .  A
C3776      C3777   1.403   1_455  A
C3776      N3781   1.429       .  S
C3777      C3778   1.400       .  A
C3777      H3782   1.084       .  S
C3778      C3779   1.414   1_655  A
C3779      C3780   1.397       .  A
C3779      N3783   1.430       .  S
C3780      H3784   1.084       .  S
N3781      O3791   1.262   1_455  A
N3781      O3792   1.262       .  A
N3783      O3789   1.262       .  A
N3783      O3790   1.262       .  A
C3793      C3794   1.401       .  A
C3793      C3798   1.406       .  A
C3793      H3803   1.084       .  S
C3794      C3799   1.494       .  S
C3794      C3795   1.411       .  A
C3795      C3796   1.407       .  A
C3795      N3800   1.428       .  S
C3796      C3797   1.407       .  A
C3796      H3801   1.084   1_554  S
C3797      C3798   1.420       .  A
C3798      N3802   1.429       .  S
C3799      C3804   1.413       .  A
C3799      C3808   1.403       .  A
N3800      O3815   1.262       .  A
N3800      O3816   1.262       .  A
N3802      O3813   1.262       .  A
N3802      O3814   1.262       .  A
C3804      C3805   1.406       .  A
C3804      N3809   1.428       .  S
C3805      C3806   1.402       .  A
C3805      H3810   1.083       .  S
C3806      C3807   1.414       .  A
C3807      C3808   1.406       .  A
C3807      N3811   1.429       .  S
C3808      H3812   1.084       .  S
N3809      O3819   1.262       .  A
N3809      O3820   1.262       .  A
N3811      O3817   1.262       .  A
N3811      O3818   1.262       .  A
C3821      C3822   1.401       .  A
C3821      C3826   1.402       .  A
C3821      H3831   1.084       .  S
C3822      C3827   1.484       .  S
C3822      C3823   1.408       .  A
C3823      C3824   1.402       .  A
C3823      N3828   1.429       .  S
C3824      C3825   1.410       .  A
C3824      H3829   1.083       .  S
C3825      C3826   1.418       .  A
C3826      N3830   1.429       .  S
C3827      C3832   1.409       .  A
C3827      C3836   1.402       .  A
N3828      O3843   1.262       .  A
N3828      O3844   1.262       .  A
N3830      O3841   1.262       .  A
N3830      O3842   1.262       .  A
C3832      C3833   1.403       .  A
C3832      N3837   1.428       .  S
C3833      C3834   1.407       .  A
C3833      H3838   1.084       .  S
C3834      C3835   1.416       .  A
C3835      C3836   1.400       .  A
C3835      N3839   1.430       .  S
C3836      H3840   1.084       .  S
N3837      O3847   1.262       .  A
N3837      O3848   1.262       .  A
N3839      O3845   1.262       .  A
N3839      O3846   1.262       .  A
C3849      C3850   1.402       .  A
C3849      C3854   1.405       .  A
C3849      H3859   1.084       .  S
C3850      C3855   1.494       .  S
C3850      C3851   1.411       .  A
C3851      C3852   1.405       .  A
C3851      N3856   1.428       .  S
C3852      C3853   1.407       .  A
C3852      H3857   1.083       .  S
C3853      C3854   1.421       .  A
C3854      N3858   1.430       .  S
C3855      C3860   1.411       .  A
C3855      C3864   1.402       .  A
N3856      O3871   1.262       .  A
N3856      O3872   1.262       .  A
N3858      O3869   1.262       .  A
N3858      O3870   1.262       .  A
C3860      C3861   1.405       .  A
C3860      N3865   1.427       .  S
C3861      C3862   1.406       .  A
C3861      H3866   1.084       .  S
C3862      C3863   1.422       .  A
C3863      C3864   1.406       .  A
C3863      N3867   1.430       .  S
C3864      H3868   1.084       .  S
N3865      O3875   1.262       .  A
N3865      O3876   1.262       .  A
N3867      O3873   1.262       .  A
N3867      O3874   1.262       .  A
C3877      C3878   1.401       .  A
C3877      C3882   1.400       .  A
C3877      H3887   1.084       .  S
C3878      C3883   1.472       .  S
C3878      C3879   1.409       .  A
C3879      C3880   1.396       .  A
C3879      N3884   1.429       .  S
C3880      C3881   1.402       .  A
C3880      H3885   1.084       .  S
C3881      C3882   1.414       .  A
C3882      N3886   1.429       .  S
C3883      C3888   1.406       .  A
C3883      C3892   1.398       .  A
N3884      O3899   1.262       .  A
N3884      O3900   1.262       .  A
N3886      O3897   1.262       .  A
N3886      O3898   1.262       .  A
C3888      C3889   1.399       .  A
C3888      N3893   1.428       .  S
C3889      C3890   1.406       .  A
C3889      H3894   1.084       .  S
C3890      C3891   1.417       .  A
C3891      C3892   1.392       .  A
C3891      N3895   1.431       .  S
C3892      H3896   1.085       .  S
N3893      O3903   1.262       .  A
N3893      O3904   1.261       .  A
N3895      O3901   1.262       .  A
N3895      O3902   1.262       .  A
C3905      C3906   1.405       .  A
C3905      C3910   1.408       .  A
C3905      H3915   1.084       .  S
C3906      C3911   1.482   1_655  S
C3906      C3907   1.405       .  A
C3907      C3908   1.396       .  A
C3907      N3912   1.428       .  S
C3908      C3909   1.406       .  A
C3908      H3913   1.084       .  S
C3909      C3910   1.412       .  A
C3910      N3914   1.428       .  S
C3911      C3916   1.410       .  A
C3911      C3920   1.401       .  A
N3912      O3927   1.262       .  A
N3912      O3928   1.262       .  A
N3914      O3925   1.262       .  A
N3914      O3926   1.262       .  A
C3916      C3917   1.402       .  A
C3916      N3921   1.428       .  S
C3917      C3918   1.402       .  A
C3917      H3922   1.084       .  S
C3918      C3919   1.413       .  A
C3919      C3920   1.404       .  A
C3919      N3923   1.429       .  S
C3920      H3924   1.084       .  S
N3921      O3931   1.262       .  A
N3921      O3932   1.261       .  A
N3923      O3929   1.262       .  A
N3923      O3930   1.262       .  A
C3933      C3934   1.404       .  A
C3933      C3938   1.403       .  A
C3933      H3943   1.084       .  S
C3934      C3939   1.484       .  S
C3934      C3935   1.410       .  A
C3935      C3936   1.401       .  A
C3935      N3940   1.428       .  S
C3936      C3937   1.404       .  A
C3936      H3941   1.084       .  S
C3937      C3938   1.412       .  A
C3938      N3942   1.430       .  S
C3939      C3944   1.410       .  A
C3939      C3948   1.398       .  A
N3940      O3955   1.262       .  A
N3940      O3956   1.261       .  A
N3942      O3953   1.262       .  A
N3942      O3954   1.262       .  A
C3944      C3945   1.404       .  A
C3944      N3949   1.428       .  S
C3945      C3946   1.407       .  A
C3945      H3950   1.084       .  S
C3946      C3947   1.409       .  A
C3947      C3948   1.400       .  A
C3947      N3951   1.420       .  S
C3948      H3952   1.084       .  S
N3949      O3959   1.262       .  A
N3949      O3960   1.261       .  A
N3951      O3957   1.260       .  A
N3951      O3958   1.262       .  A
