geometry optimzed in LAMMPS
_audit_creation_date              2020-12-01 
_audit_creation_method            'lammps2cif' 
_symmetry_space_group_name_H-M    'P1' 
_symmetry_Int_Tables_number       1 
_symmetry_cell_setting            triclinic 
loop_ 
_symmetry_equiv_pos_as_xyz 
  x,y,z 
_cell_length_a                    37.49087899 
_cell_length_b                    37.70737717451173 
_cell_length_c                    30.964230179575328 
_cell_angle_alpha                 89.7695628660827 
_cell_angle_beta                  89.98664021261197 
_cell_angle_gamma                 120.02184927396094 
loop_ 
_atom_site_label 
_atom_site_type_symbol 
_atom_site_fract_x 
_atom_site_fract_y 
_atom_site_fract_z 
_atom_site_charge 
O1          O  0.60554225  0.62219009  0.12799508    -0.81000
C2          C  0.52778963  0.45033657  0.11892868     0.98400
O3          O  0.50875884  0.47020443  0.11640713    -0.70100
O4          O  0.53324154  0.51671994  0.18464716    -0.73700
Al5        Al  0.52971523  0.52805000  0.12608653     1.49000
C6          C  0.55673034  0.54309305  0.21150350     0.93600
O7          O  0.64308370  0.55080984  0.16718500    -0.79900
O8          O  0.62513898  0.56462891  0.04339482    -0.73500
Al9        Al  0.62179725  0.58408794  0.14595454     1.90100
O10         O  0.64299490  0.52389408  0.10461217    -0.72500
O11         O  0.54898014  0.50344802  0.04020719    -0.72400
O12         O  0.56536906  0.46700698  0.10894761    -0.78000
O13         O  0.52073470  0.53729900  0.06748395    -0.76200
O14         O  0.58203795  0.54326492  0.11642233    -1.12400
O15         O  0.53956414  0.58241247  0.14048904    -0.71600
C16         C  0.57122122  0.61784531  0.13885915     0.99200
C17         C  0.65727469  0.53451636  0.14206557     0.95600
Al18       Al  0.59439587  0.51666259  0.07741040     1.55600
O19         O  0.59093269  0.57308560  0.19963444    -0.76200
C20         C  0.52568328  0.51843110  0.03644997     0.99700
C21         C  0.65598345  0.59620426  0.05827908     0.94600
O22         O  0.66001216  0.60359730  0.09842801    -0.81500
O23         O  0.46608685  0.52388966  0.30029200    -0.81000
C24         C  0.35238095  0.42229388  0.42759104     0.98400
O25         O  0.38470451  0.42216374  0.41668468    -0.70100
O26         O  0.37990696  0.41099638  0.33242255    -0.73700
Al27       Al  0.42153049  0.44924273  0.36895432     1.49000
C28         C  0.37989016  0.41764111  0.29246839     0.93600
O29         O  0.35139025  0.48750761  0.30634252    -0.79900
O30         O  0.43112669  0.55982148  0.39305385    -0.73500
Al31       Al  0.40847873  0.50501706  0.30615454     1.90100
O32         O  0.34847983  0.51042513  0.37046833    -0.72500
O33         O  0.42729925  0.50297471  0.44457795    -0.72400
O34         O  0.34693933  0.45157144  0.41725283    -0.78000
O35         O  0.46428316  0.48428026  0.40580970    -0.76200
O36         O  0.40663259  0.48652794  0.35932136    -1.12400
O37         O  0.46190044  0.46694589  0.32365031    -0.71600
C38         C  0.47997332  0.49949233  0.30162841     0.99200
C39         C  0.33216246  0.49586028  0.33421450     0.95600
Al40       Al  0.38977795  0.50484970  0.40289748     1.55600
O41         O  0.39390768  0.45373285  0.27807051    -0.76200
C42         C  0.45880530  0.49907881  0.43980560     0.99700
C43         C  0.43863802  0.57919611  0.35796365     0.94600
O44         O  0.42397455  0.56038560  0.32280670    -0.81500
O45         O  0.64890304  0.73362339  0.29739372    -0.81000
C46         C  0.56271529  0.82287945  0.28763605     0.98400
O47         O  0.60118194  0.83690812  0.28769291    -0.70100
O48         O  0.61964855  0.80750803  0.35717309    -0.73700
Al49       Al  0.63411899  0.81147602  0.29769397     1.49000
C50         C  0.62106554  0.78200350  0.38281834     0.93600
O51         O  0.54034375  0.69810072  0.33822415    -0.79900
O52         O  0.56640018  0.71577303  0.21482498    -0.73500
Al53       Al  0.59445162  0.71872692  0.31587141     1.90100
O54         O  0.51165423  0.70402782  0.27912418    -0.72500
O55         O  0.58978586  0.79426012  0.21176039    -0.72400
O56         O  0.53845599  0.78507004  0.28095259    -0.78000
O57         O  0.65222469  0.82013013  0.23876263    -0.76200
O58         O  0.59443854  0.76012295  0.28781813    -1.12400
O59         O  0.67655126  0.79881067  0.31166737    -0.71600
C60         C  0.67934446  0.76682889  0.30966966     0.99200
C61         C  0.50901920  0.68636254  0.31462648     0.95600
Al62       Al  0.55484781  0.75078045  0.25004934     1.55600
O63         O  0.61517458  0.74781868  0.36951564    -0.76200
C64         C  0.62846410  0.81565053  0.20759943     0.99700
C65         C  0.56755470  0.68476029  0.22864432     0.94600
O66         O  0.57403146  0.68148540  0.26814723    -0.81500
O67         O  0.68784539  0.86420710  0.47725165    -0.81000
C68         C  0.70502623  0.98857665  0.08925299     0.98400
O69         O  0.67336624  0.95340887  0.08812502    -0.70100
O70         O  0.64840060  0.94314701  0.00709731    -0.73700
Al71       Al  0.65802041  0.91026164  0.04642911     1.49000
C72         C  0.65498404  0.94010934  0.46701138     0.93600
O73         O  0.75819694  0.97955229  0.47267739    -0.79900
O74         O  0.76933822  0.91668504  0.05064695    -0.73500
Al75       Al  0.72232820  0.92208601  0.47825847     1.90100
O76         O  0.78738303  0.99210043  0.01443354    -0.72500
O77         O  0.72476745  0.92329323  0.11131924    -0.72400
O78         O  0.73803582  0.99536389  0.07148829    -0.78000
O79         O  0.66403883  0.87651365  0.08714243    -0.76200
O80         O  0.70819014  0.92787289  0.02563794    -1.12400
O81         O  0.63034066  0.86316990  0.00883435    -0.71600
C82         C  0.64924340  0.84731134  0.48123003     0.99200
C83         C  0.77668528  0.00073794  0.97882259     0.95600
Al84       Al  0.75172402  0.95482274  0.05934091     1.55600
O85         O  0.67996433  0.92999538  0.45172848    -0.76200
C86         C  0.69118167  0.88973629  0.11634436     0.99700
C87         C  0.77553235  0.90508728  0.01491599     0.94600
O88         O  0.76682910  0.91276252  0.49404995    -0.81500
O89         O  0.98019822  0.41048818  0.13687278    -0.81000
C90         C  0.88298175  0.48493001  0.13052596     0.98400
O91         O  0.92206734  0.50469324  0.12794407    -0.70100
O92         O  0.94613254  0.47955871  0.19537154    -0.73700
Al93       Al  0.96035636  0.48482518  0.13606880     1.49000
C94         C  0.94807508  0.45439845  0.22094647     0.93600
O95         O  0.86929547  0.36803232  0.17277207    -0.79900
O96         O  0.90458576  0.39484835  0.05055403    -0.73500
Al97       Al  0.92505049  0.39229569  0.15287940     1.90100
O98         O  0.84367839  0.37089843  0.11036135    -0.72500
O99         O  0.91692642  0.46946974  0.05051535    -0.72400
O100        O  0.86265501  0.44783539  0.11965816    -0.78000
O101        O  0.97890998  0.49508486  0.07743430    -0.76200
O102        O  0.92364741  0.43287686  0.12530329    -1.12400
O103        O  0.00569462  0.47608219  0.14845495    -0.71600
C104        C  0.01002525  0.44501641  0.14672509     0.99200
C105        C  0.83947829  0.35412328  0.14669905     0.95600
Al106      Al  0.88495024  0.42181336  0.08605344     1.55600
O107        O  0.94269032  0.42037749  0.20760192    -0.76200
C108        C  0.95558283  0.49033432  0.04596973     0.99700
C109        C  0.90794120  0.36482473  0.06307087     0.94600
O110        O  0.90936171  0.35735640  0.10286045    -0.81500
O111        O  0.02071765  0.53986911  0.31128261    -0.81000
C112        C  0.03910893  0.65562093  0.43675300     0.98400
O113        O  0.00626063  0.62249527  0.42943010    -0.70100
O114        O  0.99044223  0.62164481  0.34618842    -0.73700
Al115      Al  0.99325656  0.58331344  0.38410150     1.49000
C116        C  0.99580264  0.62187836  0.30589191     0.93600
O117        O  0.09735535  0.65476947  0.31251665    -0.79900
O118        O  0.09720230  0.57714062  0.39911683    -0.73500
Al119      Al  0.05856735  0.59734228  0.31508939     1.90100
O120        O  0.12853663  0.65813280  0.37336091    -0.72500
O121        O  0.04928207  0.58394171  0.45572179    -0.72400
O122        O  0.07357428  0.66132301  0.42400021    -0.78000
O123        O  0.99057134  0.54325135  0.42363110    -0.76200
O124        O  0.04523186  0.59966316  0.36956817    -1.12400
O125        O  0.96837647  0.54109507  0.34135550    -0.71600
C126        C  0.98232271  0.52488101  0.31589950     0.99200
C127        C  0.12765240  0.67386577  0.33750984     0.95600
Al128      Al  0.08410210  0.61864621  0.40979183     1.55600
O129        O  0.01902171  0.60978153  0.29027255    -0.76200
C130        C  0.01419259  0.55192919  0.45583115     0.99700
C131        C  0.10652611  0.56889409  0.36294627     0.94600
O132        O  0.10045123  0.58333585  0.32846225    -0.81500
O133        O  0.72144904  0.70212115  0.46950007    -0.81000
C134        C  0.89635145  0.78222172  0.46060683     0.98400
O135        O  0.87144983  0.74403471  0.46003540    -0.70100
O136        O  0.82223263  0.72608823  0.02087037    -0.73700
Al137      Al  0.81271934  0.71210737  0.46883998     1.49000
C138        C  0.79525551  0.72577164  0.04576519     0.93600
O139        O  0.79545333  0.80670036  0.99705408    -0.79900
O140        O  0.78761791  0.77996826  0.38533495    -0.73500
Al141      Al  0.76252969  0.75490718  0.48707255     1.90100
O142        O  0.83040943  0.83556678  0.44867999    -0.72500
O143        O  0.84339551  0.75763543  0.38407182    -0.72400
O144        O  0.88368940  0.80724700  0.45358463    -0.78000
O145        O  0.80345654  0.69552566  0.40973287    -0.76200
O146        O  0.80282668  0.75283860  0.45911697    -1.12400
O147        O  0.75659758  0.67091954  0.48096662    -0.71600
C148        C  0.72264110  0.67023827  0.47898164     0.99200
C149        C  0.81690540  0.83854816  0.48491702     0.95600
Al150      Al  0.83397599  0.79198101  0.42128009     1.55600
O151        O  0.76753334  0.73230030  0.03103371    -0.76200
C152        C  0.82372058  0.71936999  0.37898413     0.99700
C153        C  0.75551220  0.77961665  0.39843229     0.94600
O154        O  0.74658159  0.77600951  0.43831203    -0.81500
O155        O  0.80640058  0.65906167  0.14578894    -0.81000
C156        C  0.91605671  0.64645554  0.26217478     0.98400
O157        O  0.91006976  0.67649283  0.25885350    -0.70100
O158        O  0.92248839  0.69719954  0.17639758    -0.73700
Al159      Al  0.88004513  0.68790957  0.21515490     1.49000
C160        C  0.91758637  0.69439791  0.13595430     0.93600
O161        O  0.85930733  0.59715220  0.13298759    -0.79900
O162        O  0.77889102  0.57546203  0.22522020    -0.73500
Al163      Al  0.83313674  0.62756238  0.14239130     1.90100
O164        O  0.83799757  0.55886470  0.19123486    -0.72500
O165        O  0.83042275  0.62353212  0.28306057    -0.72400
O166        O  0.89137668  0.61252541  0.24524740    -0.78000
O167        O  0.83961010  0.68154757  0.25550652    -0.76200
O168        O  0.84935855  0.63694087  0.19695521    -1.12400
O169        O  0.85885600  0.71247786  0.17467979    -0.71600
C170        C  0.82842494  0.69743290  0.14919704     0.99200
C171        C  0.85577969  0.56751448  0.15477418     0.95600
Al172      Al  0.83556886  0.59558364  0.23329938     1.55600
O173        O  0.88248451  0.67270978  0.11922472    -0.76200
C174        C  0.82837742  0.65596303  0.28633156     0.99700
C175        C  0.76056603  0.56814649  0.18962362     0.94600
O176        O  0.78051264  0.58007203  0.15447720    -0.81500
O177        O  0.81092490  0.20510705  0.15044040    -0.81000
C178        C  0.68387397  0.08971937  0.25834104     0.98400
O179        O  0.71970540  0.09449548  0.25500421    -0.70100
O180        O  0.73322217  0.08693597  0.17294100    -0.73700
Al181      Al  0.76414870  0.12704815  0.21461440     1.49000
C182        C  0.73797542  0.09397545  0.13291723     0.93600
O183        O  0.69669809  0.15012353  0.13258347    -0.79900
O184        O  0.75539786  0.22901722  0.22685329    -0.73500
Al185      Al  0.75322277  0.17713658  0.14349530     1.90100
O186        O  0.67962960  0.17226792  0.19019035    -0.72500
O187        O  0.74790920  0.17467951  0.28420267    -0.72400
O188        O  0.67622550  0.11650791  0.24375400    -0.78000
O189        O  0.79625227  0.16437249  0.25741334    -0.76200
O190        O  0.74468087  0.15872198  0.19732335    -1.12400
O191        O  0.81313923  0.15237647  0.17766715    -0.71600
C192        C  0.83002088  0.18603483  0.15686244     0.99200
C193        C  0.67060758  0.15429569  0.15396726     0.95600
Al194      Al  0.71682421  0.17223699  0.23345920     1.55600
O195        O  0.75237597  0.12994881  0.11827289    -0.76200
C196        C  0.78233942  0.17633051  0.28766698     0.99700
C197        C  0.76627610  0.24806962  0.19144551     0.94600
O198        O  0.75603708  0.22858534  0.15619097    -0.81500
O199        O  0.92797131  0.27357634  0.48697043    -0.81000
C200        C  0.84585430  0.10585145  0.44426296     0.98400
O201        O  0.83010140  0.12860113  0.44334123    -0.70100
O202        O  0.86161170  0.16256176  0.03441214    -0.73700
Al203      Al  0.85239305  0.18358084  0.46410322     1.49000
C204        C  0.88586200  0.18577949  0.06288276     0.93600
O205        O  0.96856730  0.21041932  0.00375749    -0.79900
O206        O  0.95471737  0.22561557  0.39008507    -0.73500
Al207      Al  0.94273157  0.23306353  0.49490042     1.90100
O208        O  0.96552943  0.17632618  0.44525894    -0.72500
O209        O  0.87829923  0.16986041  0.37718223    -0.72400
O210        O  0.88447576  0.12098458  0.44088216    -0.78000
O211        O  0.85111042  0.20343333  0.40800607    -0.76200
O212        O  0.90518771  0.19765695  0.45873238    -1.12400
O213        O  0.86113154  0.23450120  0.48744975    -0.71600
C214        C  0.89280800  0.26888120  0.49325063     0.99200
C215        C  0.97998119  0.18564190  0.48278028     0.95600
Al216      Al  0.91936895  0.17469291  0.41697785     1.55600
O217        O  0.91663898  0.22006365  0.05259866    -0.76200
C218        C  0.85788434  0.18819376  0.37485214     0.99700
C219        C  0.98247910  0.25734652  0.40832041     0.94600
O220        O  0.98328405  0.26112405  0.44926796    -0.81500
O221        O  0.04769190  0.35530844  0.30477627    -0.81000
C222        C  0.22236240  0.44567042  0.28828024     0.98400
O223        O  0.19928551  0.40723292  0.28860004    -0.70100
O224        O  0.15341450  0.38847129  0.35964568    -0.73700
Al225      Al  0.14145326  0.37304032  0.30065838     1.49000
C226        C  0.12699556  0.38735671  0.38598994     0.93600
O227        O  0.11819126  0.46514680  0.33902365    -0.79900
O228        O  0.10841832  0.43612947  0.21743790    -0.73500
Al229      Al  0.08619847  0.41026955  0.31960243     1.90100
O230        O  0.15125827  0.49282506  0.27893837    -0.72500
O231        O  0.16589294  0.41594935  0.21351690    -0.72400
O232        O  0.20742383  0.46876820  0.28160058    -0.78000
O233        O  0.13046953  0.35421351  0.24196581    -0.76200
O234        O  0.12768190  0.41119953  0.29061082    -1.12400
O235        O  0.08745594  0.32959154  0.31724284    -0.71600
C236        C  0.05213461  0.32591132  0.31685642     0.99200
C237        C  0.13721925  0.49593485  0.31474173     0.95600
Al238      Al  0.15609583  0.45027838  0.25139362     1.55600
O239        O  0.09819039  0.39311060  0.37350380    -0.76200
C240        C  0.14850562  0.37744043  0.20990579     0.99700
C241        C  0.07401146  0.42981720  0.23123238     0.94600
O242        O  0.06553691  0.42555726  0.27108752    -0.81500
O243        O  0.13973977  0.31559010  0.47763974    -0.81000
C244        C  0.23451423  0.29477474  0.09127574     0.98400
O245        O  0.23061309  0.32599067  0.08587228    -0.70100
O246        O  0.24002721  0.34425719  0.00400359    -0.73700
Al247      Al  0.19841123  0.33575289  0.04340627     1.49000
C248        C  0.24798697  0.34312892  0.46992801     0.93600
O249        O  0.18157770  0.24233789  0.47410301    -0.79900
O250        O  0.09576617  0.22633354  0.05863131    -0.73500
Al251      Al  0.16126509  0.27924634  0.47940179     1.90100
O252        O  0.15185144  0.20393705  0.03077100    -0.72500
O253        O  0.14911130  0.27585101  0.11602056    -0.72400
O254        O  0.20650752  0.25964903  0.08035056    -0.78000
O255        O  0.16053191  0.33320381  0.08575079    -0.76200
O256        O  0.16737592  0.28356332  0.02863191    -1.12400
O257        O  0.17328952  0.35651513  0.00260202    -0.71600
C258        C  0.16293444  0.35379928  0.48184699     0.99200
C259        C  0.17030969  0.20817914  0.99530713     0.95600
Al260      Al  0.15186011  0.24447037  0.06834699     1.55600
O261        O  0.21263848  0.31996739  0.45424472    -0.76200
C262        C  0.14951582  0.30949978  0.11807192     0.99700
C263        C  0.07870052  0.21560507  0.02225857     0.94600
O264        O  0.10635907  0.23602343  0.49372010    -0.81500
O265        O  0.28479591  0.95779731  0.30296277    -0.81000
C266        C  0.18841035  0.78351522  0.29044967     0.98400
O267        O  0.17580335  0.80887938  0.28900227    -0.70100
O268        O  0.20422366  0.85519521  0.35887092    -0.73700
Al269      Al  0.20337734  0.86693092  0.29912362     1.49000
C270        C  0.22979760  0.88034333  0.38564903     0.93600
O271        O  0.31447229  0.88039597  0.34357412    -0.79900
O272        O  0.30039332  0.89209502  0.22014347    -0.73500
Al273      Al  0.29662115  0.91611643  0.32095151     1.90100
O274        O  0.30723198  0.84544010  0.28470359    -0.72500
O275        O  0.22166552  0.83932429  0.21391505    -0.72400
O276        O  0.22615551  0.79546356  0.28424359    -0.78000
O277        O  0.19732852  0.87743379  0.23921428    -0.76200
O278        O  0.25460377  0.87648811  0.29139038    -1.12400
O279        O  0.21819042  0.92222714  0.31323445    -0.71600
C280        C  0.25140013  0.95615797  0.31302878     0.99200
C281        C  0.32117322  0.85585092  0.32233668     0.95600
Al282      Al  0.26323284  0.84578164  0.25398396     1.55600
O283        O  0.26563561  0.90735600  0.37381977    -0.76200
C284        C  0.20141149  0.85749585  0.20851342     0.99700
C285        C  0.33141748  0.92395219  0.23419066     0.94600
O286        O  0.33516403  0.93271536  0.27394601    -0.81500
O287        O  0.14328041  0.86733060  0.47699784    -0.81000
C288        C  0.02398687  0.76737540  0.09679045     0.98400
O289        O  0.05701256  0.76698771  0.09074095    -0.70100
O290        O  0.06130300  0.74956222  0.00870593    -0.73700
Al291      Al  0.09788222  0.79265234  0.04667421     1.49000
C292        C  0.06292983  0.76002279  0.47444657     0.97200
O293        O  0.02713222  0.82531986  0.47971728    -0.79900
O294        O  0.10152399  0.90224052  0.05264234    -0.73500
Al295      Al  0.08522359  0.84601797  0.48160777     1.90100
O296        O  0.02152391  0.85008635  0.02787789    -0.72500
O297        O  0.09542401  0.85112730  0.11399486    -0.72400
O298        O  0.01901189  0.79600428  0.08275716    -0.78000
O299        O  0.13644655  0.83118128  0.08683444    -0.76200
O300        O  0.08102684  0.82692803  0.02868988    -1.12400
O301        O  0.14201521  0.81060572  0.00596647    -0.71600
C302        C  0.15922144  0.84492329  0.48211841     0.99200
C303        C  0.00606274  0.83173556  0.99286675     0.95600
Al304      Al  0.06105872  0.84810050  0.06627623     1.55600
O305        O  0.07419705  0.79461871  0.45767513    -0.76200
C306        C  0.12709557  0.84759569  0.11700743     0.99700
C307        C  0.10770848  0.91767042  0.01535279     0.94600
O308        O  0.09717984  0.90098210  0.49392113    -0.81500
O309        O  0.38841096  0.02981644  0.13361103    -0.81000
C310        C  0.56106293  0.12801381  0.13149656     0.98400
O311        O  0.54191967  0.08912954  0.13041792    -0.70100
O312        O  0.49113570  0.06695124  0.19640410    -0.73700
Al313      Al  0.48376846  0.05121411  0.13771134     1.49000
C314        C  0.46201512  0.06302512  0.22028117     0.93600
O315        O  0.45632348  0.14169213  0.16661131    -0.79900
O316        O  0.45154885  0.10366007  0.04641484    -0.73500
Al317      Al  0.42508674  0.08559800  0.14847874     1.90100
O318        O  0.48604364  0.16545836  0.10403134    -0.72500
O319        O  0.51495906  0.09302005  0.05202548    -0.72400
O320        O  0.54422350  0.14798268  0.11913562    -0.78000
O321        O  0.47692165  0.03170440  0.07960135    -0.76200
O322        O  0.46829067  0.08693369  0.12365125    -1.12400
O323        O  0.42976245  0.00660373  0.15037126    -0.71600
C324        C  0.39382853  0.00124286  0.14695882     0.99200
C325        C  0.47354188  0.17080798  0.13966739     0.95600
Al326      Al  0.49704532  0.12461371  0.08373065     1.55600
O327        O  0.43375232  0.06861564  0.20517069    -0.76200
C328        C  0.49665520  0.05466695  0.04812026     0.99700
C329        C  0.41760217  0.10049464  0.05681977     0.94600
O330        O  0.40739006  0.10014084  0.09604992    -0.81500
O331        O  0.46848705  0.98022266  0.30625129    -0.81000
C332        C  0.57061182  0.95963942  0.42724424     0.98400
O333        O  0.56903067  0.99188882  0.42128391    -0.70100
O334        O  0.58257784  0.00980144  0.33827103    -0.73700
Al335      Al  0.54147812  0.00527589  0.37747510     1.49000
C336        C  0.57740509  0.00713262  0.29785974     0.93600
O337        O  0.51092375  0.90579475  0.30153798    -0.79900
O338        O  0.43253613  0.89918738  0.39113977    -0.73500
Al339      Al  0.48977255  0.94288779  0.30697136     1.90100
O340        O  0.48516244  0.87248136  0.36217595    -0.72500
O341        O  0.48694693  0.94670060  0.44829087    -0.72400
O342        O  0.54233768  0.92560271  0.41378465    -0.78000
O343        O  0.50400883  0.00589491  0.41814004    -0.76200
O344        O  0.50626373  0.95416876  0.36160414    -1.12400
O345        O  0.52290834  0.03074423  0.33706080    -0.71600
C346        C  0.49237358  0.01831204  0.31221197     0.99200
C347        C  0.50214230  0.87551230  0.32601012     0.95600
Al348      Al  0.48814606  0.91429187  0.40060914     1.55600
O349        O  0.54173434  0.98489551  0.28206526    -0.76200
C350        C  0.48950811  0.98143691  0.44977750     0.99700
C351        C  0.41435975  0.88461470  0.35599663     0.94600
O352        O  0.43384983  0.89750865  0.32047447    -0.81500
O353        O  0.35997665  0.20036602  0.13724861    -0.81000
C354        C  0.35921135  0.31576549  0.25116340     0.98400
O355        O  0.33090097  0.27874647  0.24846146    -0.70100
O356        O  0.31014869  0.26816701  0.16693828    -0.73700
Al357      Al  0.32319270  0.23805563  0.20586315     1.49000
C358        C  0.31384883  0.26744081  0.12658788     0.93600
O359        O  0.41318445  0.31519680  0.12533173    -0.79900
O360        O  0.43804972  0.25781846  0.21770251    -0.73500
Al361      Al  0.38644721  0.25816491  0.13393736     1.90100
O362        O  0.45193596  0.33231679  0.18315108    -0.72500
O363        O  0.38776091  0.25808797  0.27509969    -0.72400
O364        O  0.39458281  0.32746479  0.23580618    -0.78000
O365        O  0.33265221  0.20652988  0.24640809    -0.76200
O366        O  0.37496605  0.26265457  0.18825826    -1.12400
O367        O  0.30297934  0.19172702  0.16660962    -0.71600
C368        C  0.32188447  0.17844121  0.14387038     0.99200
C369        C  0.44283237  0.34158252  0.14701086     0.95600
Al370      Al  0.41530005  0.29186938  0.22508942     1.55600
O371        O  0.33824838  0.25722589  0.10991642    -0.76200
C372        C  0.35723502  0.22205223  0.27766544     0.99700
C373        C  0.44643034  0.24767505  0.18221291     0.94600
O374        O  0.43677616  0.25784985  0.14685686    -0.81500
O375        O  0.31277590  0.07762149  0.47317933    -0.81000
C376        C  0.22244946  0.15760131  0.44018155     0.98400
O377        O  0.26114653  0.17412328  0.43735875    -0.70100
O378        O  0.25873922  0.14044882  0.02442021    -0.73700
Al379      Al  0.29542965  0.15238247  0.45614068     1.49000
C380        C  0.26093800  0.11776610  0.05291663     0.93600
O381        O  0.20389716  0.03420965  0.99458128    -0.79900
O382        O  0.23612758  0.05160905  0.38040148    -0.73500
Al383      Al  0.25741966  0.06224355  0.48460398     1.90100
O384        O  0.17623325  0.03924086  0.43831586    -0.72500
O385        O  0.25488511  0.12784982  0.36948614    -0.72400
O386        O  0.19979864  0.11927587  0.43531145    -0.78000
O387        O  0.31631261  0.15554938  0.39951482    -0.76200
O388        O  0.25775439  0.09985100  0.44988437    -1.12400
O389        O  0.33878190  0.14383451  0.47816496    -0.71600
C390        C  0.34253692  0.11251005  0.48168496     0.99200
C391        C  0.17251135  0.02565023  0.47623116     0.95600
Al392      Al  0.21966458  0.08587854  0.40921968     1.55600
O393        O  0.26565979  0.08790680  0.04230662    -0.76200
C394        C  0.29375334  0.14843083  0.36661472     0.99700
C395        C  0.23923959  0.02307512  0.39828770     0.94600
O396        O  0.24250887  0.02186058  0.43909410    -0.81500
C397        C  0.34785900  0.19943443  0.31882588    -0.15600
C398        C  0.31124374  0.16536649  0.32420261    -0.30800
H399        H  0.36816910  0.21360582  0.34621861     0.13400
H400        H  0.29037490  0.15249695  0.29696226     0.14000
C401        C  0.29954717  0.13987670  0.11949749    -0.15600
C402        C  0.26503039  0.13141112  0.09804926    -0.30800
H403        H  0.31789890  0.12688504  0.10774377     0.13400
H404        H  0.24920996  0.14793957  0.10666598     0.14000
C405        C  0.47487388  0.21004311  0.14588211    -0.15600
C406        C  0.46322123  0.21979455  0.18251991    -0.30800
H407        H  0.47979971  0.22865574  0.11714299     0.13400
H408        H  0.45940336  0.20213934  0.21173880     0.14000
C409        C  0.38973736  0.09826640  0.02298795    -0.15600
C410        C  0.37968456  0.12751222  0.02015670    -0.30800
H411        H  0.37478046  0.07090672  0.00319183     0.13400
H412        H  0.39577674  0.15487398  0.03991800     0.14000
C413        C  0.49939137  0.03821862  0.00612142    -0.15600
C414        C  0.47810441  0.99430980  0.49013682    -0.30800
H415        H  0.51950579  0.06019390  0.98194924     0.13400
H416        H  0.46663842  0.97298757  0.51718163     0.14000
C417        C  0.49114232  0.04947549  0.28422239    -0.15600
C418        C  0.45765978  0.04468039  0.26366967    -0.30800
H419        H  0.52102310  0.07485892  0.27465961     0.13400
H420        H  0.42724052  0.02105934  0.27408746     0.14000
C421        C  0.13233700  0.96230332  0.01070617    -0.15600
C422        C  0.13543452  0.98693347  0.48803638    -0.30800
H423        H  0.15587003  0.98324748  0.55054596     0.13400
H424        H  0.12127383  0.96469549  0.94415119     0.14000
C425        C  0.33772778  0.83219566  0.34334837    -0.15600
C426        C  0.37564328  0.84475258  0.35898783    -0.30800
H427        H  0.31537191  0.79986577  0.34745998     0.13400
H428        H  0.37912826  0.82154838  0.37632377     0.14000
C429        C  0.35898260  0.96425530  0.16636931    -0.15600
C430        C  0.36497256  0.95145089  0.20496326    -0.30800
H431        H  0.32792560  0.95317764  0.15448435     0.13400
H432        H  0.39575005  0.96642013  0.21870764     0.14000
C433        C  0.23660335  0.98892813  0.37238628    -0.15600
C434        C  0.25179812  0.99239289  0.33204420    -0.30800
H435        H  0.22363334  0.95951112  0.38875534     0.13400
H436        H  0.26888565  0.02216787  0.31646176     0.14000
C437        C  0.18187635  0.85282804  0.16566070    -0.15600
C438        C  0.15143663  0.86087666  0.15763353    -0.30800
H439        H  0.19044350  0.83831599  0.14068160     0.13400
H440        H  0.14167217  0.87412280  0.18283441     0.14000
C441        C  0.21548997  0.88178707  0.42961160    -0.15600
C442        C  0.19036401  0.84745354  0.45123706    -0.30800
H443        H  0.22024316  0.91098847  0.44116491     0.13400
H444        H  0.18755983  0.81866146  0.44083599     0.14000
C445        C  0.20511718  0.18449169  0.44882758    -0.15600
C446        C  0.18211084  0.17985110  0.48409028    -0.30800
H447        H  0.21762921  0.21272232  0.43020532     0.13400
H448        H  0.17262893  0.15331188  0.50490810     0.14000
C449        C  0.27110755  0.29834187  0.11224273    -0.15600
C450        C  0.28658663  0.27490020  0.09900899    -0.30800
H451        H  0.28331025  0.31763145  0.14058173     0.13400
H452        H  0.27605260  0.25784941  0.06901769     0.14000
C453        C  0.15118968  0.36129713  0.16732831    -0.15600
C454        C  0.13963670  0.32195637  0.15971514    -0.30800
H455        H  0.16584050  0.38369381  0.14158902     0.13400
H456        H  0.12654805  0.29953376  0.18561949     0.14000
C457        C  0.12583270  0.37272296  0.43026183    -0.15600
C458        C  0.16041301  0.38230606  0.45128212    -0.30800
H459        H  0.09664586  0.34828788  0.44249259     0.13400
H460        H  0.18934132  0.40815597  0.44026129     0.14000
C461        C  0.01933491  0.18731689  0.49251356    -0.15600
C462        C  0.03413790  0.19802509  0.01912243    -0.30800
H463        H  0.03440105  0.18098323  0.46614131     0.13400
H464        H  0.01798195  0.19905745  0.04781068     0.14000
C465        C  0.01514497  0.29060864  0.38203971    -0.15600
C466        C  0.01761219  0.29034182  0.33849298    -0.30800
H467        H  0.03837516  0.31689925  0.39948239     0.13400
H468        H  0.99442687  0.26526765  0.31949727     0.14000
C469        C  0.62894414  0.13608265  0.13678083    -0.15600
C470        C  0.60361726  0.15007376  0.14656414    -0.30800
H471        H  0.61868609  0.11002289  0.11529881     0.13400
H472        H  0.61437239  0.17804979  0.16499057     0.14000
C473        C  0.65149639  0.05421000  0.28241138    -0.15600
C474        C  0.61210965  0.03405367  0.26895439    -0.30800
H475        H  0.65976943  0.04626181  0.31312418     0.13400
H476        H  0.60463862  0.04067570  0.23708414     0.14000
C477        C  0.80525069  0.18949077  0.32852138    -0.15600
C478        C  0.84034149  0.18860152  0.33290017    -0.30800
H479        H  0.79103619  0.19515093  0.35624865     0.13400
H480        H  0.85352386  0.18154941  0.30521406     0.14000
C481        C  0.87362181  0.17430300  0.10825690    -0.15600
C482        C  0.86920495  0.20069195  0.13352250    -0.30800
H483        H  0.85429548  0.14169106  0.11470731     0.13400
H484        H  0.88540078  0.23293781  0.12447731     0.14000
C485        C  0.95225645  0.71950089  0.10786138    -0.15600
C486        C  0.99091455  0.73456496  0.12128329    -0.30800
H487        H  0.94593168  0.72817495  0.07642663     0.13400
H488        H  0.99799192  0.72413437  0.15116672     0.14000
C489        C  0.94052153  0.79602129  0.46755304    -0.15600
C490        C  0.96542502  0.82765131  0.49296079    -0.30800
H491        H  0.95160979  0.77633648  0.45521564     0.13400
H492        H  0.95354209  0.84321240  0.99563677     0.14000
C493        C  0.81632919  0.66569083  0.32793670    -0.15600
C494        C  0.82635765  0.70435445  0.33627316    -0.30800
H495        H  0.80382465  0.64252310  0.35327437     0.13400
H496        H  0.84084550  0.72759451  0.31116731     0.14000
C497        C  0.79215474  0.71124606  0.09082248    -0.15600
C498        C  0.82516662  0.72442673  0.11643475    -0.30800
H499        H  0.76333836  0.68455520  0.10046724     0.13400
H500        H  0.85339879  0.75224308  0.10767272     0.14000
C501        C  0.16239649  0.71511416  0.32551361    -0.15600
C502        C  0.15726930  0.73977747  0.29778410    -0.30800
H503        H  0.19136445  0.72687620  0.34272852     0.13400
H504        H  0.12693950  0.72910391  0.28398434     0.14000
C505        C  0.03747987  0.68725685  0.46214915    -0.15600
C506        C  0.05290376  0.72515686  0.44623672    -0.30800
H507        H  0.02604965  0.67998877  0.49510100     0.13400
H508        H  0.06245993  0.73134552  0.41258714     0.14000
C509        C  0.12150164  0.53945793  0.36088902    -0.15600
C510        C  0.13865381  0.53480465  0.32491706    -0.30800
H511        H  0.11329796  0.51774245  0.38736241     0.13400
H512        H  0.14779597  0.55730358  0.29908729     0.14000
C513        C  0.97085920  0.63097451  0.27604750    -0.15600
C514        C  0.95034984  0.64987341  0.28838885    -0.30800
H515        H  0.96573230  0.61778275  0.24392327     0.13400
H516        H  0.95667531  0.66532240  0.31932353     0.14000
C517        C  0.80114850  0.31498938  0.15488659    -0.15600
C518        C  0.79423377  0.29295812  0.19120909    -0.30800
H519        H  0.78094955  0.30101334  0.12736281     0.13400
H520        H  0.81342066  0.30679666  0.21940003     0.14000
C521        C  0.90958406  0.33749697  0.03116258    -0.15600
C522        C  0.87967900  0.29827709  0.03002951    -0.30800
H523        H  0.93706043  0.34879077  0.01128437     0.13400
H524        H  0.85213582  0.28802414  0.04965994     0.14000
C525        C  0.86090129  0.50528609  0.14645080    -0.15600
C526        C  0.87479261  0.54470985  0.13753618    -0.30800
H527        H  0.83264773  0.48762255  0.16484403     0.13400
H528        H  0.90110065  0.56105285  0.11605065     0.14000
C529        C  0.04134866  0.42509336  0.20167201    -0.15600
C530        C  0.04709963  0.44718423  0.16554214    -0.30800
H531        H  0.01003308  0.40516422  0.21319932     0.13400
H532        H  0.07768171  0.47107325  0.15590690     0.14000
C533        C  0.97213786  0.50880027  0.00324514    -0.15600
C534        C  0.00054611  0.52636869  0.49535466    -0.30800
H535        H  0.94954471  0.50288036  0.97820607     0.13400
H536        H  0.02216718  0.53514440  0.52199177     0.14000
C537        C  0.96289941  0.46783615  0.26522712    -0.15600
C538        C  0.95350563  0.49311886  0.28605023    -0.30800
H539        H  0.98773212  0.46340358  0.27690684     0.13400
H540        H  0.92737650  0.49580486  0.27518240     0.14000
C541        C  0.81771173  0.06167242  0.44989527    -0.15600
C542        C  0.82238229  0.04111299  0.48270145    -0.30800
H543        H  0.78864319  0.04807104  0.43258767     0.13400
H544        H  0.84981856  0.05625859  0.50268179     0.14000
C545        C  0.73015299  0.06073295  0.10330341    -0.15600
C546        C  0.70448239  0.02142813  0.11373014    -0.30800
H547        H  0.74788069  0.06858086  0.07350604     0.13400
H548        H  0.68464320  0.01341010  0.14193692     0.14000
C549        C  0.81659865  0.87638389  0.49524845    -0.15600
C550        C  0.79487308  0.87936544  0.01467971    -0.30800
H551        H  0.82464440  0.89871902  0.46941869     0.13400
H552        H  0.78925546  0.85966302  0.04255420     0.14000
C553        C  0.62808528  0.94701972  0.43777226    -0.15600
C554        C  0.60436056  0.96156798  0.45274628    -0.30800
H555        H  0.62482563  0.93655464  0.40458886     0.13400
H556        H  0.60883997  0.97408468  0.48511407     0.14000
C557        C  0.54779417  0.85248207  0.29414916    -0.15600
C558        C  0.51194108  0.84315492  0.31346179    -0.30800
H559        H  0.56933422  0.88442240  0.28658270     0.13400
H560        H  0.49203170  0.81215541  0.32523706     0.14000
C561        C  0.71517611  0.76676693  0.32994709    -0.15600
C562        C  0.72854715  0.78579036  0.36828522    -0.30800
H563        H  0.72491764  0.74566769  0.31870234     0.13400
H564        H  0.71459824  0.80278917  0.38120078     0.14000
C565        C  0.64391852  0.83562570  0.16542132    -0.15600
C566        C  0.68206855  0.86706030  0.15781998    -0.30800
H567        H  0.62092434  0.82587657  0.14004953     0.13400
H568        H  0.70510861  0.87824743  0.18317414     0.14000
C569        C  0.62218219  0.81512496  0.45082501    -0.15600
C570        C  0.63583557  0.79484930  0.42710039    -0.30800
H571        H  0.59368042  0.81411917  0.44173920     0.13400
H572        H  0.66333180  0.79419714  0.43688885     0.14000
C573        C  0.28970067  0.48753258  0.32505947    -0.15600
C574        C  0.26714811  0.46212477  0.29306640    -0.30800
H575        H  0.27541614  0.49900404  0.34727832     0.13400
H576        H  0.28048855  0.44780574  0.27350227     0.14000
C577        C  0.32132558  0.38894320  0.45409904    -0.15600
C578        C  0.28236461  0.36758590  0.44035967    -0.30800
H579        H  0.32978607  0.38426942  0.48628574     0.13400
H580        H  0.27501417  0.37154148  0.40735862     0.14000
C581        C  0.46750399  0.62386166  0.35795393    -0.15600
C582        C  0.47044553  0.64790854  0.32446788    -0.30800
H583        H  0.49016922  0.63608456  0.38368869     0.13400
H584        H  0.44707803  0.63567026  0.29940143     0.14000
C585        C  0.36974865  0.38420592  0.26201791    -0.15600
C586        C  0.35223969  0.34513059  0.27524033    -0.30800
H587        H  0.38305936  0.39253437  0.22982711     0.13400
H588        H  0.33706229  0.33582110  0.30647510     0.14000
C589        C  0.69463741  0.53309284  0.15273903    -0.15600
C590        C  0.71550580  0.54901071  0.18919328    -0.30800
H591        H  0.70952887  0.52650928  0.12631975     0.13400
H592        H  0.70080551  0.55470060  0.21642205     0.14000
C593        C  0.68984481  0.62389865  0.03009490    -0.15600
C594        C  0.68560780  0.63375266  0.98947545    -0.30800
H595        H  0.71993041  0.63994749  0.04533456     0.13400
H596        H  0.67844029  0.60368537  0.48663603     0.14000
C597        C  0.50629778  0.40757181  0.13436277    -0.15600
C598        C  0.46553170  0.38368030  0.13005542    -0.30800
H599        H  0.52426674  0.39538417  0.14905043     0.13400
H600        H  0.44818726  0.39485634  0.11212758     0.14000
C601        C  0.55952402  0.65012906  0.20019744    -0.15600
C602        C  0.57023587  0.65317638  0.15826624    -0.30800
H603        H  0.54828880  0.62076763  0.21634813     0.13400
H604        H  0.58605239  0.68294806  0.14250726     0.14000
C605        C  0.50342658  0.51150031  0.99552920    -0.15600
C606        C  0.48856528  0.50906464  0.47479526    -0.30800
H607        H  0.51277510  0.49908799  0.96898441     0.13400
H608        H  0.51483834  0.50496802  0.46848235     0.14000
C609        C  0.54080303  0.54117703  0.25544011    -0.15600
C610        C  0.51313592  0.50487702  0.27221700    -0.30800
H611        H  0.54559689  0.56938865  0.26999951     0.13400
H612        H  0.51035011  0.47705501  0.25860822     0.14000
O613        O  0.59208911  0.62077745  0.63799613    -0.81000
C614        C  0.52274634  0.45040987  0.61754717     0.98400
O615        O  0.50354013  0.46889772  0.62697170    -0.70100
O616        O  0.53301307  0.51283012  0.69614268    -0.73700
Al617      Al  0.52155364  0.52478798  0.64015446     1.49000
C618        C  0.55568522  0.54114075  0.72160476     0.93600
O619        O  0.63984467  0.55543865  0.66432499    -0.79900
O620        O  0.61132856  0.57313750  0.54621874    -0.73500
Al621      Al  0.61370353  0.58613180  0.65034949     1.90100
O622        O  0.63565616  0.53060720  0.59909764    -0.72500
O623        O  0.53577677  0.51102147  0.54549810    -0.72400
O624        O  0.55861576  0.46935770  0.60194089    -0.78000
O625        O  0.50433361  0.53442304  0.58642355    -0.76200
O626        O  0.57315709  0.54439304  0.62237967    -1.12400
O627        O  0.52878557  0.57687406  0.65802950    -0.71600
C628        C  0.55767683  0.61337115  0.65232932     0.99200
C629        C  0.65291139  0.54090783  0.63562129     0.95600
Al630      Al  0.58430418  0.52261215  0.57696702     1.55600
O631        O  0.58738745  0.57266276  0.70727165    -0.76200
C632        C  0.50927916  0.52211706  0.55047025     0.99700
C633        C  0.64097589  0.60578224  0.56067524     0.94600
O634        O  0.64820150  0.61049729  0.60071400    -0.81500
O635        O  0.46510225  0.52486370  0.80954319    -0.81000
C636        C  0.34137088  0.42008643  0.92705062     0.98400
O637        O  0.37620572  0.42289627  0.92296021    -0.70100
O638        O  0.38113734  0.41157860  0.83992067    -0.73700
Al639      Al  0.41758952  0.45141432  0.87926450     1.49000
C640        C  0.38216540  0.41762221  0.79970092     0.93600
O641        O  0.34983761  0.48687435  0.80478789    -0.79900
O642        O  0.41934799  0.55791714  0.89839775    -0.73500
Al643      Al  0.40697290  0.50490355  0.81080941     1.90100
O644        O  0.34142527  0.50939047  0.86675092    -0.72500
O645        O  0.41054027  0.50098872  0.95197970    -0.72400
O646        O  0.33524526  0.44827761  0.91383702    -0.78000
O647        O  0.45544957  0.48847749  0.92005538    -0.76200
O648        O  0.40111800  0.48654129  0.86458590    -1.12400
O649        O  0.46204238  0.47029175  0.83814078    -0.71600
C650        C  0.47974917  0.50132204  0.81383947     0.99200
C651        C  0.32885856  0.49605706  0.82930581     0.95600
Al652      Al  0.37835383  0.50277317  0.90447677     1.55600
O653        O  0.39507642  0.45336610  0.78450673    -0.76200
C654        C  0.44447086  0.50141018  0.95218127     0.99700
C655        C  0.43027632  0.57792772  0.86364066     0.94600
O656        O  0.42054295  0.55999658  0.82726791    -0.81500
O657        O  0.63384139  0.72509862  0.80333797    -0.81000
C658        C  0.55474877  0.82046487  0.79352224     0.98400
O659        O  0.59298145  0.83340102  0.79246115    -0.70100
O660        O  0.61250872  0.80493820  0.86176797    -0.73700
Al661      Al  0.62428382  0.80630451  0.80164362     1.49000
C662        C  0.61278416  0.77919594  0.88792289     0.93600
O663        O  0.52839502  0.69762832  0.84741585    -0.79900
O664        O  0.55163738  0.71018662  0.72339864    -0.73500
Al665      Al  0.58106178  0.71407479  0.82348123     1.90100
O666        O  0.49928281  0.70204984  0.78794330    -0.72500
O667        O  0.57712852  0.78869809  0.71703379    -0.72400
O668        O  0.52916407  0.78290997  0.78779893    -0.78000
O669        O  0.63992050  0.81252178  0.74197205    -0.76200
O670        O  0.58271808  0.75563027  0.79408431    -1.12400
O671        O  0.66532652  0.79127875  0.81377691    -0.71600
C672        C  0.66616630  0.75820450  0.81213795     0.99200
C673        C  0.49684288  0.68559958  0.82410137     0.95600
Al674      Al  0.54260612  0.74691672  0.75730606     1.55600
O675        O  0.60481957  0.74418148  0.87547549    -0.76200
C676        C  0.61567282  0.80853125  0.71147182     0.99700
C677        C  0.55062430  0.67849760  0.73836449     0.94600
O678        O  0.55720709  0.67548551  0.77779975    -0.81500
O679        O  0.68216582  0.86141715  0.97837232    -0.81000
C680        C  0.69741626  0.98256550  0.59335781     0.98400
O681        O  0.66665393  0.94703344  0.58966419    -0.70100
O682        O  0.64997905  0.94064741  0.50721722    -0.73700
Al683      Al  0.65626073  0.90626734  0.54689452     1.49000
C684        C  0.64838852  0.93859594  0.96672445     0.93600
O685        O  0.74566602  0.97447765  0.95890094    -0.79900
O686        O  0.76491315  0.91082356  0.56518307    -0.73500
Al687      Al  0.71454255  0.91871833  0.97097538     1.90100
O688        O  0.79018399  0.98808257  0.53418141    -0.72500
O689        O  0.71444042  0.91626045  0.61980428    -0.72400
O690        O  0.73282424  0.99036625  0.58138457    -0.78000
O691        O  0.65757086  0.86984211  0.58865426    -0.76200
O692        O  0.70867637  0.92575881  0.53220404    -1.12400
O693        O  0.63352252  0.86214495  0.50616005    -0.71600
C694        C  0.64395037  0.84564031  0.98462632     0.99200
C695        C  0.78855052  0.00073896  0.49688769     0.95600
Al696      Al  0.74750825  0.94954831  0.57200375     1.55600
O697        O  0.66841783  0.92332042  0.94975967    -0.76200
C698        C  0.68124601  0.88218767  0.62102491     0.99700
C699        C  0.77584322  0.90269330  0.52983492     0.94600
O700        O  0.76243076  0.91253652  0.98024857    -0.81500
O701        O  0.97606370  0.40857046  0.64806110    -0.81000
C702        C  0.86990888  0.47112040  0.62030757     0.98400
O703        O  0.90878218  0.49204140  0.61759614    -0.70100
O704        O  0.93182615  0.47524432  0.69068913    -0.73700
Al705      Al  0.94877025  0.47658798  0.63293336     1.49000
C706        C  0.93254255  0.45296246  0.72072644     0.93600
O707        O  0.86377405  0.36049078  0.67784637    -0.79900
O708        O  0.89720914  0.37585184  0.55629203    -0.73500
Al709      Al  0.91980613  0.38740512  0.66028115     1.90100
O710        O  0.83676935  0.35767730  0.61460320    -0.72500
O711        O  0.90733581  0.44988915  0.54579701    -0.72400
O712        O  0.85130398  0.43320551  0.61284306    -0.78000
O713        O  0.96876193  0.48322258  0.57512205    -0.76200
O714        O  0.91524463  0.42302817  0.62634134    -1.12400
O715        O  0.99623046  0.47379299  0.65175916    -0.71600
C716        C  0.00367142  0.44480567  0.65513649     0.99200
C717        C  0.83353267  0.34463628  0.65256954     0.95600
Al718      Al  0.87632355  0.40571843  0.58574704     1.55600
O719        O  0.93200427  0.41974582  0.71263246    -0.76200
C720        C  0.94552268  0.47498465  0.54262286     0.99700
C721        C  0.90583243  0.35062968  0.57357888     0.94600
O722        O  0.90976138  0.34940091  0.61417932    -0.81500
O723        O  0.03099013  0.52739588  0.81155256    -0.81000
C724        C  0.03716131  0.64895196  0.92365248     0.98400
O725        O  0.00649139  0.61353311  0.91829768    -0.70100
O726        O  0.98810401  0.60289698  0.83541476    -0.73700
Al727      Al  0.99700542  0.57124132  0.87656863     1.49000
C728        C  0.99035984  0.59897401  0.79531126     0.93600
O729        O  0.09056537  0.64244684  0.79620561    -0.79900
O730        O  0.11235973  0.58467776  0.89003476    -0.73500
Al731      Al  0.06069187  0.58515796  0.80622680     1.90100
O732        O  0.12713826  0.65999843  0.85571972    -0.72500
O733        O  0.05989665  0.58571020  0.94717252    -0.72400
O734        O  0.07196686  0.65767877  0.90902388    -0.78000
O735        O  0.00109276  0.53830907  0.91980994    -0.76200
O736        O  0.04921755  0.59181744  0.86027064    -1.12400
O737        O  0.97505091  0.52405639  0.83807891    -0.71600
C738        C  0.99244846  0.50838685  0.81639514     0.99200
C739        C  0.11930908  0.66921523  0.81878342     0.95600
Al740      Al  0.08960659  0.61952277  0.89744137     1.55600
O741        O  0.01370302  0.58654635  0.78028840    -0.76200
C742        C  0.02562539  0.55272738  0.95126006     0.99700
C743        C  0.12524938  0.57851447  0.85483778     0.94600
O744        O  0.11039225  0.58229812  0.81944286    -0.81500
O745        O  0.72029448  0.69950140  0.95784743    -0.81000
C746        C  0.89518972  0.78003107  0.94964176     0.98400
O747        O  0.87007190  0.74206596  0.95150148    -0.70100
O748        O  0.82284813  0.72501143  0.52867945    -0.73700
Al749      Al  0.81188871  0.71088221  0.96127007     1.49000
C750        C  0.79734098  0.72631928  0.55445633     0.93600
O751        O  0.79826578  0.80767122  0.50902648    -0.79900
O752        O  0.78539731  0.77665025  0.87443374    -0.73500
Al753      Al  0.76050597  0.75295410  0.97605852     1.90100
O754        O  0.82889045  0.83318707  0.93666301    -0.72500
O755        O  0.84037066  0.75281870  0.87408095    -0.72400
O756        O  0.88261209  0.80497830  0.94163849    -0.78000
O757        O  0.80240713  0.69171555  0.90307829    -0.76200
O758        O  0.80145761  0.75100677  0.94921055    -1.12400
O759        O  0.75647379  0.67046713  0.97445129    -0.71600
C760        C  0.72213536  0.66867079  0.97024866     0.99200
C761        C  0.81429914  0.83697543  0.97193477     0.95600
Al762      Al  0.83209980  0.78891043  0.91017923     1.55600
O763        O  0.76987468  0.73367397  0.54096497    -0.76200
C764        C  0.82212169  0.71424638  0.87133658     0.99700
C765        C  0.75355992  0.77687784  0.88746174     0.94600
O766        O  0.74451936  0.77325584  0.92716801    -0.81500
O767        O  0.81050630  0.65728751  0.64404430    -0.81000
C768        C  0.91101091  0.62729687  0.75597228     0.98400
O769        O  0.90890552  0.65974005  0.75466361    -0.70100
O770        O  0.92428261  0.68480953  0.67409706    -0.73700
Al771      Al  0.88255834  0.67744262  0.71286767     1.49000
C772        C  0.92022662  0.68638707  0.63385762     0.93600
O773        O  0.85514549  0.58883038  0.62660095    -0.79900
O774        O  0.77387077  0.57101929  0.71736962    -0.73500
Al775      Al  0.83318271  0.62269160  0.63763634     1.90100
O776        O  0.82790668  0.54748869  0.68223274    -0.72500
O777        O  0.82668235  0.61282344  0.77846947    -0.72400
O778        O  0.88311377  0.59471652  0.73929741    -0.78000
O779        O  0.84361787  0.67381782  0.75306877    -0.76200
O780        O  0.84823638  0.62817775  0.69243491    -1.12400
O781        O  0.86508583  0.70713413  0.67479947    -0.71600
C782        C  0.83406234  0.69502358  0.65038781     0.99200
C783        C  0.84713374  0.55661123  0.64647692     0.95600
Al784      Al  0.82915690  0.58463057  0.72670322     1.55600
O785        O  0.88507930  0.66704544  0.61634391    -0.76200
C786        C  0.82878074  0.64731649  0.78279159     0.99700
C787        C  0.75687159  0.56638965  0.68118043     0.94600
O788        O  0.77816851  0.57738322  0.64685059    -0.81500
O789        O  0.79720663  0.19456903  0.64789174    -0.81000
C790        C  0.67735686  0.08226823  0.76298941     0.98400
O791        O  0.71108099  0.08347845  0.75461465    -0.70100
O792        O  0.71511695  0.07822222  0.67106017    -0.73700
Al793      Al  0.75260231  0.11516391  0.71082209     1.49000
C794        C  0.71836775  0.08596216  0.63131552     0.93600
O795        O  0.68218159  0.14914949  0.64542257    -0.79900
O796        O  0.75716618  0.22236345  0.73663425    -0.73500
Al797      Al  0.73941982  0.17067787  0.64861350     1.90100
O798        O  0.67605107  0.17197725  0.70878578    -0.72500
O799        O  0.75189906  0.16466425  0.78879869    -0.72400
O800        O  0.67306701  0.11267793  0.75508317    -0.78000
O801        O  0.79150201  0.14869510  0.75124439    -0.76200
O802        O  0.73595111  0.15081001  0.70134329    -1.12400
O803        O  0.79783453  0.13907433  0.66855996    -0.71600
C804        C  0.81488766  0.17372174  0.64954646     0.99200
C805        C  0.66199462  0.15806309  0.67151668     0.95600
Al806      Al  0.71602050  0.16674444  0.74419183     1.55600
O807        O  0.73180106  0.12227537  0.61799233    -0.76200
C808        C  0.78442606  0.16233841  0.78503566     0.99700
C809        C  0.76357672  0.24184189  0.70170220     0.94600
O810        O  0.74840267  0.22312328  0.66670071    -0.81500
O811        O  0.92078681  0.27690025  0.99359631    -0.81000
C812        C  0.85482793  0.11161902  0.95337643     0.98400
O813        O  0.83320833  0.12820337  0.95989743    -0.70100
O814        O  0.84911146  0.16191617  0.51967329    -0.73700
Al815      Al  0.85101144  0.18180493  0.98231947     1.49000
C816        C  0.87235410  0.17941944  0.55133215     0.93600
O817        O  0.96419291  0.19868102  0.50953875    -0.79900
O818        O  0.94206016  0.23918016  0.89051613    -0.73500
Al819      Al  0.94285011  0.24191085  0.99685814     1.90100
O820        O  0.96616825  0.19271110  0.93602272    -0.72500
O821        O  0.86559822  0.17646263  0.88706425    -0.72400
O822        O  0.89100578  0.13236274  0.93927971    -0.78000
O823        O  0.83515394  0.19839889  0.93155030    -0.76200
O824        O  0.90306985  0.20395326  0.96502397    -1.12400
O825        O  0.85723983  0.23031227  0.00959848    -0.71600
C826        C  0.88586492  0.26721921  0.00866536     0.99200
C827        C  0.98102659  0.19725529  0.97341531     0.95600
Al828      Al  0.91495550  0.18638867  0.91685691     1.55600
O829        O  0.90786069  0.21079678  0.54614957    -0.76200
C830        C  0.83905771  0.18731069  0.89436458     0.99700
C831        C  0.97145127  0.27057115  0.90765082     0.94600
O832        O  0.97713064  0.27232439  0.94817414    -0.81500
O833        O  0.05208260  0.37231085  0.82303306    -0.81000
C834        C  0.22186517  0.44898953  0.77996177     0.98400
O835        O  0.19696568  0.41089626  0.78072687    -0.70100
O836        O  0.15812655  0.39331099  0.85485779    -0.73700
Al837      Al  0.14000852  0.37998414  0.79725693     1.49000
C838        C  0.14211622  0.40154109  0.88621592     0.93600
O839        O  0.13188700  0.48267683  0.84295412    -0.79900
O840        O  0.10621835  0.44771068  0.72425268    -0.73500
Al841      Al  0.09549301  0.42665376  0.82891471     1.90100
O842        O  0.15990765  0.50587035  0.78008370    -0.72500
O843        O  0.15946322  0.42265082  0.71003549    -0.72400
O844        O  0.20915231  0.47413737  0.77485204    -0.78000
O845        O  0.12389243  0.36154837  0.73893968    -0.76200
O846        O  0.13013623  0.42175843  0.79256827    -1.12400
O847        O  0.08588126  0.33939005  0.81651193    -0.71600
C848        C  0.05331245  0.33974595  0.82563659     0.99200
C849        C  0.15278248  0.51234126  0.81804290     0.95600
Al850      Al  0.15624816  0.45926692  0.75103196     1.55600
O851        O  0.11541141  0.41240118  0.88040863    -0.76200
C852        C  0.14235063  0.38417355  0.70675070     0.99700
C853        C  0.07397700  0.44308339  0.74244661     0.94600
O854        O  0.06957698  0.44003925  0.78319777    -0.81500
O855        O  0.12443605  0.30049653  0.97243191    -0.81000
C856        C  0.24502167  0.30134426  0.59569841     0.98400
O857        O  0.24018430  0.33198832  0.59288904    -0.70100
O858        O  0.25316344  0.34848616  0.51018867    -0.73700
Al859      Al  0.21175879  0.34355212  0.54885570     1.49000
C860        C  0.23533203  0.33933000  0.96387860     0.93600
O861        O  0.17786990  0.23764308  0.97025369    -0.79900
O862        O  0.10488460  0.23538558  0.56478023    -0.73500
Al863      Al  0.15193921  0.26988325  0.97409128     1.90100
O864        O  0.15871476  0.21032227  0.53572843    -0.72500
O865        O  0.15975870  0.28569036  0.62084731    -0.72400
O866        O  0.21682475  0.26633949  0.58436280    -0.78000
O867        O  0.17318864  0.34338668  0.58931932    -0.76200
O868        O  0.17778597  0.29171069  0.53372185    -1.12400
O869        O  0.19303250  0.36786479  0.50728391    -0.71600
C870        C  0.14178527  0.33858798  0.97848655     0.99200
C871        C  0.17350132  0.21241749  0.49848842     0.95600
Al872      Al  0.16135701  0.25253450  0.57338382     1.55600
O873        O  0.20070323  0.31428265  0.94809374    -0.76200
C874        C  0.15957835  0.31929637  0.62142853     0.99700
C875        C  0.08640601  0.22602275  0.52897474     0.94600
O876        O  0.09979553  0.22314968  0.98803297    -0.81500
O877        O  0.28802891  0.95607831  0.80856713    -0.81000
C878        C  0.20229924  0.78224591  0.79844777     0.98400
O879        O  0.18455989  0.80341950  0.79671091    -0.70100
O880        O  0.21072700  0.85223101  0.86384771    -0.73700
Al881      Al  0.20812203  0.86247615  0.80444312     1.49000
C882        C  0.23484290  0.87869739  0.89028493     0.93600
O883        O  0.31757542  0.87902478  0.84835490    -0.79900
O884        O  0.30510024  0.89540193  0.72398275    -0.73500
Al885      Al  0.30101046  0.91543000  0.82601276     1.90100
O886        O  0.31781081  0.85082465  0.78672362    -0.72500
O887        O  0.22741555  0.83733964  0.71790060    -0.72400
O888        O  0.23949368  0.79774917  0.78754047    -0.78000
O889        O  0.19929147  0.87106531  0.74526425    -0.76200
O890        O  0.26014108  0.87566194  0.79560467    -1.12400
O891        O  0.22074074  0.91821387  0.81617459    -0.71600
C892        C  0.25341870  0.95296378  0.81628186     0.99200
C893        C  0.32599768  0.85607963  0.82644109     0.95600
Al894      Al  0.27138476  0.84767667  0.75706253     1.55600
O895        O  0.26996138  0.90683141  0.87848711    -0.76200
C896        C  0.20458373  0.85291376  0.71382438     0.99700
C897        C  0.33658678  0.92613661  0.73913632     0.94600
O898        O  0.34054425  0.93305505  0.77939304    -0.81500
O899        O  0.14176684  0.86138877  0.97103351    -0.81000
C900        C  0.02743250  0.76820978  0.60244298     0.98400
O901        O  0.06172457  0.77019117  0.59700331    -0.70100
O902        O  0.06403084  0.75594285  0.51476131    -0.73700
Al903      Al  0.10152293  0.79740003  0.55191771     1.49000
C904        C  0.06238023  0.75366667  0.96811598     0.97200
O905        O  0.02536432  0.81930921  0.96963862    -0.79900
O906        O  0.10365901  0.90550761  0.56464152    -0.73500
Al907      Al  0.08360798  0.83994525  0.97313987     1.90100
O908        O  0.02320548  0.85354068  0.53977090    -0.72500
O909        O  0.09887225  0.85183531  0.62280839    -0.72400
O910        O  0.02164386  0.79692431  0.59047895    -0.78000
O911        O  0.14094729  0.83513988  0.59162741    -0.76200
O912        O  0.08384552  0.83157619  0.53654100    -1.12400
O913        O  0.14421625  0.81573907  0.50900493    -0.71600
C914        C  0.15840244  0.84010567  0.97957406     0.99200
C915        C  0.00743016  0.83595865  0.50448213     0.95600
Al916      Al  0.06356746  0.85047118  0.57631171     1.55600
O917        O  0.07378317  0.78826350  0.95129040    -0.76200
C918        C  0.13113819  0.84900705  0.62383034     0.99700
C919        C  0.10975586  0.92226841  0.52798622     0.94600
O920        O  0.09507537  0.89518876  0.98221827    -0.81500
O921        O  0.39227003  0.03096076  0.64234083    -0.81000
C922        C  0.56261173  0.12215485  0.61029238     0.98400
O923        O  0.54108292  0.08362055  0.60986226    -0.70100
O924        O  0.50346138  0.06681196  0.68462640    -0.73700
Al925      Al  0.48515329  0.04913745  0.62765156     1.49000
C926        C  0.48176843  0.06798668  0.71511407     0.93600
O927        O  0.46488573  0.14202466  0.67091129    -0.79900
O928        O  0.44254386  0.10748386  0.55019584    -0.73500
Al929      Al  0.43149459  0.08617731  0.65444593     1.90100
O930        O  0.49005564  0.16696017  0.60710285    -0.72500
O931        O  0.50081997  0.08893441  0.53946785    -0.72400
O932        O  0.54652204  0.14421411  0.60393982    -0.78000
O933        O  0.46870677  0.02819125  0.57048201    -0.76200
O934        O  0.46967519  0.08638670  0.62032157    -1.12400
O935        O  0.43342652  0.00601393  0.64905830    -0.71600
C936        C  0.39787717  0.00165744  0.65115016     0.99200
C937        C  0.48039459  0.17166441  0.64467470     0.95600
Al938      Al  0.49331028  0.12392654  0.57870151     1.55600
O939        O  0.45027777  0.07141900  0.70735130    -0.76200
C940        C  0.48439875  0.05040895  0.53727228     0.99700
C941        C  0.40982505  0.10227407  0.56774411     0.94600
O942        O  0.40529375  0.09940196  0.60846626    -0.81500
O943        O  0.45718843  0.97110371  0.81255013    -0.81000
C944        C  0.56979408  0.96693544  0.93000562     0.98400
O945        O  0.56582823  0.99799260  0.92391330    -0.70100
O946        O  0.57428403  0.01163829  0.84079100    -0.73700
Al947      Al  0.53375017  0.00661605  0.88016749     1.49000
C948        C  0.56875258  0.00546990  0.80086702     0.93600
O949        O  0.50708231  0.90449223  0.81079438    -0.79900
O950        O  0.43010995  0.89740649  0.90244160    -0.73500
Al951      Al  0.48288510  0.93861524  0.81448766     1.90100
O952        O  0.48396456  0.87363061  0.87311331    -0.72500
O953        O  0.48605289  0.95020397  0.95498641    -0.72400
O954        O  0.54187409  0.93179821  0.91897073    -0.78000
O955        O  0.49699459  0.00661482  0.92218335    -0.76200
O956        O  0.50078331  0.95393361  0.86790801    -1.12400
O957        O  0.50974457  0.02731675  0.83772928    -0.71600
C958        C  0.47725487  0.00963321  0.81500166     0.99200
C959        C  0.49931099  0.87529328  0.83638312     0.95600
Al960      Al  0.48665247  0.91646484  0.90911155     1.55600
O961        O  0.53294307  0.98147653  0.78613261    -0.76200
C962        C  0.48682171  0.98405208  0.95548437     0.99700
C963        C  0.41128606  0.88091855  0.86810509     0.94600
O964        O  0.42932976  0.89244693  0.83170631    -0.81500
O965        O  0.37069610  0.21090930  0.63535648    -0.81000
C966        C  0.36240124  0.31473697  0.75972364     0.98400
O967        O  0.33228134  0.28038114  0.74907347    -0.70100
O968        O  0.32688778  0.28356776  0.66599020    -0.73700
Al969      Al  0.32814654  0.24469502  0.70181765     1.49000
C970        C  0.33267142  0.28427350  0.62604867     0.93600
O971        O  0.43350146  0.32589261  0.64205916    -0.79900
O972        O  0.43496335  0.24824305  0.72800481    -0.73500
Al973      Al  0.40103136  0.26831444  0.64080023     1.90100
O974        O  0.46003797  0.32969581  0.70648651    -0.72500
O975        O  0.37745056  0.24493023  0.77945346    -0.72400
O976        O  0.39880834  0.32342978  0.75165795    -0.78000
O977        O  0.32504812  0.20410604  0.73857059    -0.76200
O978        O  0.38165375  0.26609727  0.69364673    -1.12400
O979        O  0.31162791  0.20414998  0.65624116    -0.71600
C980        C  0.33200398  0.19068244  0.63636875     0.99200
C981        C  0.45965288  0.34612962  0.67079500     0.95600
Al982      Al  0.41551748  0.28513952  0.73809679     1.55600
O983        O  0.35836344  0.27488128  0.61095205    -0.76200
C984        C  0.34402693  0.21146374  0.77365918     0.99700
C985        C  0.44946291  0.24416680  0.69288437     0.94600
O986        O  0.44655408  0.26116837  0.65868445    -0.81500
O987        O  0.31855796  0.08600644  0.98157358    -0.81000
C988        C  0.21572218  0.15003387  0.93971508     0.98400
O989        O  0.25303343  0.16992071  0.95035518    -0.70100
O990        O  0.27687911  0.15329915  0.51227860    -0.73700
Al991      Al  0.28896972  0.15242586  0.97233473     1.49000
C992        C  0.27423122  0.13004042  0.54289493     0.93600
O993        O  0.20236510  0.04167123  0.50182359    -0.79900
O994        O  0.25546555  0.06005922  0.88045175    -0.73500
Al995      Al  0.26101645  0.06193852  0.98649305     1.90100
O996        O  0.18527707  0.03709673  0.92795662    -0.72500
O997        O  0.27043688  0.13630561  0.87587863    -0.72400
O998        O  0.20016978  0.11391209  0.92584636    -0.78000
O999        O  0.32133298  0.16899971  0.92207078    -0.76200
O1000       O  0.26010646  0.10066009  0.95473130    -1.12400
O1001       O  0.33236473  0.14770642  0.99947463    -0.71600
C1002       C  0.34247032  0.12050334  0.99771898     0.99200
C1003       C  0.17746156  0.02037332  0.96491863     0.95600
Al1004     Al  0.23022807  0.08812947  0.90646440     1.55600
O1005       O  0.27217308  0.09589330  0.53605820    -0.76200
C1006       C  0.30751568  0.16318902  0.88416767     0.99700
C1007       C  0.25975326  0.03214970  0.89797317     0.94600
O1008       O  0.25752953  0.02778416  0.93859936    -0.81500
C1009       C  0.32392840  0.18139506  0.80831912    -0.15600
C1010       C  0.33466554  0.18987400  0.84968032    -0.30800
H1011       H  0.29616005  0.15301523  0.79995151     0.13400
H1012       H  0.36236834  0.21807634  0.85852617     0.14000
C1013       C  0.31148280  0.15376991  0.60958438    -0.15600
C1014       C  0.27816908  0.14605851  0.58664751    -0.30800
H1015       H  0.32984048  0.14023188  0.59945388     0.13400
H1016       H  0.26268521  0.16332129  0.59336122     0.14000
C1017       C  0.48259375  0.21090573  0.65500735    -0.15600
C1018       C  0.46606903  0.21597064  0.69126738    -0.30800
H1019       H  0.49076182  0.23286118  0.62875947     0.13400
H1020       H  0.45816454  0.19434731  0.71778756     0.14000
C1021       C  0.37530293  0.09824578  0.54123643    -0.15600
C1022       C  0.37956505  0.11580697  0.50218354    -0.30800
H1023       H  0.34481384  0.08184098  0.55583820     0.13400
H1024       H  0.40986114  0.13586839  0.48851936     0.14000
C1025       C  0.48631169  0.03300704  0.49533173    -0.15600
C1026       C  0.47902880  0.99830252  0.99664009    -0.30800
H1027       H  0.49882065  0.05435286  0.46835595     0.13400
H1028       H  0.46022110  0.97582853  0.02102534     0.14000
C1029       C  0.46488961  0.03324616  0.78626541    -0.15600
C1030       C  0.49286074  0.06191353  0.75946458    -0.30800
H1031       H  0.43243183  0.01959152  0.77849619     0.13400
H1032       H  0.52521456  0.07201473  0.76487382     0.14000
C1033       C  0.13421026  0.96713609  0.52466723    -0.15600
C1034       C  0.13931020  0.98119415  0.97216920    -0.30800
H1035       H  0.14982237  0.97920957  0.03883885     0.13400
H1036       H  0.11312900  0.97076632  0.46267834     0.14000
C1037       C  0.33832237  0.82949018  0.84839531    -0.15600
C1038       C  0.37211652  0.84207124  0.87240273    -0.30800
H1039       H  0.31459970  0.79746482  0.85088069     0.13400
H1040       H  0.37286685  0.81961145  0.89389946     0.14000
C1041       C  0.36400368  0.96466829  0.67093166    -0.15600
C1042       C  0.37019623  0.95420568  0.71051378    -0.30800
H1043       H  0.33296934  0.95194697  0.65828713     0.13400
H1044       H  0.40079177  0.97063997  0.72452712     0.14000
C1045       C  0.26791993  0.00384620  0.87206483    -0.15600
C1046       C  0.25156846  0.98893141  0.83284897    -0.30800
H1047       H  0.28419787  0.99064362  0.88857221     0.13400
H1048       H  0.23102368  0.99779404  0.81778086     0.14000
C1049       C  0.18366370  0.84810915  0.67172847    -0.15600
C1050       C  0.15571242  0.85989822  0.66429266    -0.30800
H1051       H  0.19003200  0.83208997  0.64652566     0.13400
H1052       H  0.14817566  0.87475838  0.68977105     0.14000
C1053       C  0.21898192  0.87978627  0.93330005    -0.15600
C1054       C  0.19325563  0.84481059  0.95352497    -0.30800
H1055       H  0.22122558  0.90839012  0.94344368     0.13400
H1056       H  0.19272423  0.81676387  0.94424842     0.14000
C1057       C  0.19085908  0.16992076  0.94546249    -0.15600
C1058       C  0.18539899  0.17976082  0.98557389    -0.30800
H1059       H  0.18066026  0.17975518  0.91738102     0.13400
H1060       H  0.19429414  0.16776778  0.01299004     0.14000
C1061       C  0.28261269  0.30636801  0.61543150    -0.15600
C1062       C  0.30471801  0.29078157  0.59811369    -0.30800
H1063       H  0.29116948  0.32172998  0.64648332     0.13400
H1064       H  0.29787450  0.27762786  0.56593966     0.14000
C1065       C  0.14702556  0.36738776  0.66503857    -0.15600
C1066       C  0.14537520  0.33096498  0.66119658    -0.30800
H1067       H  0.15740718  0.38819349  0.63757500     0.13400
H1068       H  0.13653847  0.31059874  0.68895688     0.14000
C1069       C  0.15366561  0.39508741  0.92992925    -0.15600
C1070       C  0.12697910  0.36182822  0.95273580    -0.30800
H1071       H  0.18641068  0.40839790  0.93629486     0.13400
H1072       H  0.09494854  0.34526645  0.94248316     0.14000
C1073       C  0.01629206  0.19145201  0.98025229    -0.15600
C1074       C  0.04102045  0.20594515  0.52819242    -0.30800
H1075       H  0.03212043  0.18971569  0.95162441     0.13400
H1076       H  0.02614838  0.21178457  0.55511742     0.14000
C1077       C  0.00016206  0.30611044  0.88094382    -0.15600
C1078       C  0.01760051  0.30272755  0.84419661    -0.30800
H1079       H  0.01176771  0.33623215  0.89515102     0.13400
H1080       H  0.01022409  0.27268954  0.83254281     0.14000
C1081       C  0.62122699  0.15150382  0.65889856    -0.15600
C1082       C  0.60667478  0.14027718  0.61867374    -0.30800
H1083       H  0.60156290  0.15298603  0.68381172     0.13400
H1084       H  0.62537035  0.13692760  0.59399411     0.14000
C1085       C  0.64331432  0.04642958  0.78490426    -0.15600
C1086       C  0.60391373  0.03021509  0.77158411    -0.30800
H1087       H  0.65021074  0.03593859  0.81480900     0.13400
H1088       H  0.59741348  0.03914001  0.74045924     0.14000
C1089       C  0.81460440  0.17315059  0.81997915    -0.15600
C1090       C  0.81058225  0.18442827  0.85976395    -0.30800
H1091       H  0.84071661  0.16899272  0.81285808     0.13400
H1092       H  0.78485927  0.18895469  0.86760527     0.14000
C1093       C  0.85501716  0.16362320  0.59452543    -0.15600
C1094       C  0.85283172  0.18857218  0.62373064    -0.30800
H1095       H  0.83292605  0.13100832  0.59674996     0.13400
H1096       H  0.87129597  0.22147092  0.61857041     0.14000
C1097       C  0.95586822  0.71479986  0.60789636    -0.15600
C1098       C  0.99410316  0.73252355  0.62394205    -0.30800
H1099       H  0.95029121  0.72442523  0.57670377     0.13400
H1100       H  0.00068086  0.72170168  0.65378724     0.14000
C1101       C  0.93933439  0.79329093  0.95536240    -0.15600
C1102       C  0.96485445  0.82489535  0.98025825    -0.30800
H1103       H  0.94953019  0.77269013  0.94364994     0.13400
H1104       H  0.95337233  0.84508472  0.50888961     0.14000
C1105       C  0.81663458  0.65834414  0.82386143    -0.15600
C1106       C  0.82590955  0.69732252  0.83011794    -0.30800
H1107       H  0.80354226  0.63594299  0.84975245     0.13400
H1108       H  0.84026710  0.71956666  0.80421233     0.14000
C1109       C  0.79592379  0.71327977  0.59954990    -0.15600
C1110       C  0.83043332  0.72457242  0.62209042    -0.30800
H1111       H  0.76699622  0.68737723  0.61047777     0.13400
H1112       H  0.85894066  0.75148719  0.61200708     0.14000
C1113       C  0.14226638  0.71184984  0.80186797    -0.15600
C1114       C  0.18037948  0.73944186  0.81474471    -0.30800
H1115       H  0.12732147  0.72068377  0.77746041     0.13400
H1116       H  0.19689632  0.72994694  0.83637497     0.14000
C1117       C  0.03331372  0.67992006  0.94933946    -0.15600
C1118       C  0.05599156  0.71985013  0.93927064    -0.30800
H1119       H  0.01356762  0.67016130  0.97771862     0.13400
H1120       H  0.07324559  0.72858980  0.90909829     0.14000
C1121       C  0.16454082  0.57779274  0.85620476    -0.15600
C1122       C  0.17696452  0.55438991  0.83523446    -0.30800
H1123       H  0.18871294  0.60381680  0.87337422     0.13400
H1124       H  0.20984100  0.56537274  0.83617403     0.14000
C1125       C  0.96265631  0.60549762  0.76655990    -0.15600
C1126       C  0.94491221  0.62704964  0.77976562    -0.30800
H1127       H  0.95468464  0.59034155  0.73539810     0.13400
H1128       H  0.95497642  0.64449644  0.80951705     0.14000
C1129       C  0.79509284  0.30766227  0.66468884    -0.15600
C1130       C  0.79166096  0.28636605  0.70069763    -0.30800
H1131       H  0.77202500  0.29368073  0.63947197     0.13400
H1132       H  0.81409140  0.30002602  0.72649273     0.14000
C1133       C  0.91223391  0.32210753  0.54685496    -0.15600
C1134       C  0.88902875  0.30262993  0.51228941    -0.30800
H1135       H  0.93400501  0.31337047  0.55895573     0.13400
H1136       H  0.86372743  0.30722486  0.50281480     0.14000
C1137       C  0.84677717  0.49147529  0.63346774    -0.15600
C1138       C  0.86385277  0.53202351  0.62842221    -0.30800
H1139       H  0.81681364  0.47370352  0.64876507     0.13400
H1140       H  0.89247039  0.54875018  0.61033385     0.14000
C1141       C  0.03928357  0.43892735  0.71655664    -0.15600
C1142       C  0.04202170  0.45187038  0.67552615    -0.30800
H1143       H  0.00939182  0.42419831  0.73244728     0.13400
H1144       H  0.07141106  0.46890762  0.65897640     0.14000
C1145       C  0.96161406  0.49581101  0.50071643    -0.15600
C1146       C  0.01251925  0.53268578  0.99412140    -0.30800
H1147       H  0.93981114  0.48764169  0.47432386     0.13400
H1148       H  0.03543307  0.54037100  0.01920587     0.14000
C1149       C  0.93793566  0.46901700  0.76505980    -0.15600
C1150       C  0.96818742  0.47128044  0.79025175    -0.30800
H1151       H  0.92651481  0.48995724  0.77120668     0.13400
H1152       H  0.98301283  0.45394256  0.78135313     0.14000
C1153       C  0.83791937  0.06811876  0.96405203    -0.15600
C1154       C  0.79744285  0.04249191  0.96148102    -0.30800
H1155       H  0.85831153  0.05756041  0.97582751     0.13400
H1156       H  0.77798326  0.05283032  0.94649499     0.14000
C1157       C  0.71171140  0.05313963  0.60135044    -0.15600
C1158       C  0.69227534  0.01407879  0.61499878    -0.30800
H1159       H  0.72765147  0.06139300  0.57043784     0.13400
H1160       H  0.67433688  0.00540467  0.64468615     0.14000
C1161       C  0.81302392  0.87494809  0.97947764    -0.15600
C1162       C  0.79654510  0.87836898  0.53019254    -0.30800
H1163       H  0.81986484  0.89567437  0.95228007     0.13400
H1164       H  0.78937601  0.85693663  0.55676185     0.14000
C1165       C  0.62124545  0.94658674  0.93939715    -0.15600
C1166       C  0.60622372  0.97062625  0.95179146    -0.30800
H1167       H  0.61028213  0.92912286  0.90969068     0.13400
H1168       H  0.61850107  0.99033767  0.97980928     0.14000
C1169       C  0.54120256  0.85066923  0.80037419    -0.15600
C1170       C  0.50813180  0.84256395  0.82424191    -0.30800
H1171       H  0.56163939  0.88187581  0.78940155     0.13400
H1172       H  0.49000422  0.81254003  0.83910252     0.14000
C1173       C  0.70322767  0.75728770  0.82744493    -0.15600
C1174       C  0.72737686  0.78434486  0.85759132    -0.30800
H1175       H  0.70580712  0.73031658  0.82120979     0.13400
H1176       H  0.72131361  0.80855581  0.86713254     0.14000
C1177       C  0.63092784  0.82783102  0.66880012    -0.15600
C1178       C  0.66953237  0.85835400  0.66177927    -0.30800
H1179       H  0.60824402  0.81908930  0.64318691     0.13400
H1180       H  0.69187055  0.86862520  0.68785383     0.14000
C1181       C  0.61519864  0.81209977  0.95655092    -0.15600
C1182       C  0.62861603  0.79227089  0.93170494    -0.30800
H1183       H  0.58602261  0.81034197  0.94912605     0.13400
H1184       H  0.65713273  0.79281894  0.93964652     0.14000
C1185       C  0.28867410  0.49046113  0.81535760    -0.15600
C1186       C  0.26590811  0.46281914  0.78536677    -0.30800
H1187       H  0.27526177  0.50536827  0.83384251     0.13400
H1188       H  0.27764107  0.44476364  0.77015399     0.14000
C1189       C  0.30854052  0.38500031  0.95002358    -0.15600
C1190       C  0.26974656  0.36603157  0.93539368    -0.30800
H1191       H  0.31598719  0.37604504  0.98059778     0.13400
H1192       H  0.26290870  0.37322329  0.90352463     0.14000
C1193       C  0.45741338  0.62255251  0.86593171    -0.15600
C1194       C  0.45854374  0.64740567  0.83436605    -0.30800
H1195       H  0.48060714  0.63421474  0.89117976     0.13400
H1196       H  0.43452516  0.63543362  0.80995436     0.14000
C1197       C  0.37356232  0.38371030  0.77012884    -0.15600
C1198       C  0.35582543  0.34458043  0.78366245    -0.30800
H1199       H  0.38718927  0.39171937  0.73802351     0.13400
H1200       H  0.34056984  0.33553089  0.81489578     0.14000
C1201       C  0.69166744  0.54053515  0.64191112    -0.15600
C1202       C  0.71220654  0.55110830  0.67941009    -0.30800
H1203       H  0.70636885  0.53703292  0.61328979     0.13400
H1204       H  0.69730496  0.55352114  0.70843468     0.14000
C1205       C  0.66811011  0.63952343  0.53160834    -0.15600
C1206       C  0.68543656  0.63422315  0.49601735    -0.30800
H1207       H  0.67973558  0.67035907  0.54392526     0.13400
H1208       H  0.65539450  0.62174761  0.97492532     0.14000
C1209       C  0.50204862  0.40594232  0.62434514    -0.15600
C1210       C  0.48862916  0.39003020  0.66383432    -0.30800
H1211       H  0.49574407  0.38617728  0.59657837     0.13400
H1212       H  0.49742321  0.41016962  0.69164868     0.14000
C1213       C  0.54097828  0.64346197  0.71090164    -0.15600
C1214       C  0.55424596  0.64741192  0.67013762    -0.30800
H1215       H  0.52849666  0.61394510  0.72713754     0.13400
H1216       H  0.57129114  0.67754278  0.65525085     0.14000
C1217       C  0.48252574  0.51913277  0.51440413    -0.15600
C1218       C  0.47005773  0.51540752  0.99134384    -0.30800
H1219       H  0.45640883  0.52340124  0.52096223     0.13400
H1220       H  0.45966886  0.52641148  0.01827805     0.14000
C1221       C  0.54044394  0.54058945  0.76590868    -0.15600
C1222       C  0.51286153  0.50519117  0.78473619    -0.30800
H1223       H  0.54541687  0.56940847  0.77896341     0.13400
H1224       H  0.50959379  0.47667712  0.77266606     0.14000
loop_ 
_geom_bond_atom_site_label_1 
_geom_bond_atom_site_label_2 
_geom_bond_distance 
_geom_bond_site_symmetry_2 
_ccdc_geom_bond_type 
O1           C16   1.259       .  A
O1           Al9   1.901       .  S
C2           O12   1.260       .  A
C2            O3   1.269       .  A
C2          C597   1.474       .  S
O3           Al5   1.938       .  S
O4            C6   1.260       .  A
O4           Al5   1.881       .  S
Al5          O13   1.908       .  S
Al5          O15   1.946       .  S
Al5          O14   1.772       .  S
C6           O19   1.266       .  A
C6          C609   1.473       .  S
O7           C17   1.263       .  A
O7           Al9   1.908       .  S
O8           C21   1.263       .  A
O8          Al18   1.899       .  S
Al9          O22   1.922       .  S
Al9          O19   1.946       .  S
Al9          O14   1.773       .  S
O10          C17   1.258       .  A
O10         Al18   1.900       .  S
O11          C20   1.261       .  A
O11         Al18   1.906       .  S
O12         Al18   1.895       .  S
O13          C20   1.266       .  A
O14         Al18   1.776       .  S
O15          C16   1.268       .  A
C16         C602   1.481       .  S
C17         C589   1.466       .  S
C20         C605   1.468   1_554  S
C21          O22   1.268       .  A
C21         C593   1.459       .  S
O23          C38   1.264       .  A
O23         Al31   1.914       .  S
C24          O34   1.259       .  A
C24          O25   1.260       .  A
C24         C577   1.462       .  S
O25         Al27   1.926       .  S
O26          C28   1.261       .  A
O26         Al27   1.886       .  S
Al27         O35   1.874       .  S
Al27         O37   1.920       .  S
Al27         O36   1.778       .  S
C28          O41   1.267       .  A
C28         C585   1.467       .  S
O29          C39   1.262       .  A
O29         Al31   1.898       .  S
O30          C43   1.257       .  A
O30         Al40   1.890       .  S
Al31         O44   1.938       .  S
Al31         O41   1.937       .  S
Al31         O36   1.773       .  S
O32          C39   1.267       .  A
O32         Al40   1.943       .  S
O33          C42   1.270       .  A
O33         Al40   1.936       .  S
O34         Al40   1.891       .  S
O35          C42   1.257       .  A
O36         Al40   1.772       .  S
O37          C38   1.261       .  A
C38         C610   1.470       .  S
C39         C573   1.488       .  S
C42         C606   1.464       .  S
C43          O44   1.268       .  A
C43         C581   1.478       .  S
O45          C60   1.260       .  A
O45         Al53   1.913       .  S
C46          O56   1.268       .  A
C46          O47   1.263       .  A
C46         C557   1.492       .  S
O47         Al49   1.930       .  S
O48          C50   1.266       .  A
O48         Al49   1.904       .  S
Al49         O57   1.916       .  S
Al49         O59   1.925       .  S
Al49         O58   1.783       .  S
C50          O63   1.265       .  A
C50         C570   1.469       .  S
O51          C61   1.262       .  A
O51         Al53   1.901       .  S
O52          C65   1.265       .  A
O52         Al62   1.924       .  S
Al53         O66   1.919       .  S
Al53         O63   1.931       .  S
Al53         O58   1.784       .  S
O54          C61   1.261       .  A
O54         Al62   1.916       .  S
O55          C64   1.264       .  A
O55         Al62   1.909       .  S
O56         Al62   1.942       .  S
O57          C64   1.267       .  A
O58         Al62   1.782       .  S
O59          C60   1.263       .  A
C60         C561   1.484       .  S
C61         C582   1.478       .  S
C64         C565   1.471       .  S
C65          O66   1.265       .  A
C65         C601   1.479       .  S
O67          C82   1.262       .  A
O67         Al75   1.901       .  S
C68          O78   1.257       .  A
C68          O69   1.263       .  A
C68         C546   1.464   1_565  S
O69         Al71   1.930       .  S
O70         C684   1.262   1_554  A
O70         Al71   1.894       .  S
Al71         O79   1.880       .  S
Al71         O81   1.939       .  S
Al71         O80   1.772       .  S
C72          O85   1.267       .  A
C72         O682   1.261       .  A
C72         C553   1.472       .  S
O73         C695   1.261   1_565  A
O73         Al75   1.901       .  S
O74          C87   1.255       .  A
O74         Al84   1.879       .  S
Al75         O88   1.932       .  S
Al75         O85   1.939       .  S
Al75        O692   1.773       .  S
O76          C83   1.269   1_564  A
O76         Al84   1.949       .  S
O77          C86   1.271       .  A
O77         Al84   1.951       .  S
O78         Al84   1.879       .  S
O79          C86   1.264       .  A
O80         Al84   1.771       .  S
O80        Al687   1.768   1_554  S
O81         C694   1.265   1_554  A
C82         O693   1.261       .  A
C82         C569   1.472       .  S
C83         O685   1.252   1_545  A
C83        C1154   1.463       .  S
C86         C566   1.482       .  S
C87         O700   1.268   1_554  A
C87         C550   1.473       .  S
O88         C699   1.269       .  A
O89         C104   1.259   1_655  A
O89         Al97   1.889       .  S
C90         O100   1.260       .  A
C90          O91   1.271       .  A
C90         C525   1.468       .  S
O91         Al93   1.939       .  S
O92          C94   1.263       .  A
O92         Al93   1.894       .  S
Al93        O101   1.912       .  S
Al93        O103   1.925   1_655  S
Al93        O102   1.775       .  S
C94         O107   1.266       .  A
C94         C537   1.473       .  S
O95         C105   1.262       .  A
O95         Al97   1.915       .  S
O96         C109   1.260       .  A
O96        Al106   1.882       .  S
Al97        O110   1.929       .  S
Al97        O107   1.935       .  S
Al97        O102   1.773       .  S
O98         C105   1.259       .  A
O98        Al106   1.914       .  S
O99         C108   1.264       .  A
O99        Al106   1.925       .  S
O100       Al106   1.890       .  S
O101        C108   1.261       .  A
O102       Al106   1.776       .  S
O103        C104   1.262       .  A
C104        C530   1.471       .  S
C105        C517   1.477       .  S
C108        C533   1.476       .  S
C109        O110   1.270       .  A
C109        C521   1.454       .  S
O111        C126   1.264   1_455  A
O111       Al119   1.910       .  S
C112        O122   1.262       .  A
C112        O113   1.261       .  A
C112        C505   1.458       .  S
O113       Al115   1.920   1_455  S
O114        C116   1.263       .  A
O114       Al115   1.902       .  S
Al115       O123   1.903       .  S
Al115       O125   1.920       .  S
Al115       O124   1.782   1_655  S
C116        O129   1.264   1_655  A
C116        C513   1.471       .  S
O117        C127   1.263       .  A
O117       Al119   1.912       .  S
O118        C131   1.259       .  A
O118       Al128   1.890       .  S
Al119       O132   1.935       .  S
Al119       O129   1.924       .  S
Al119       O124   1.774       .  S
O120        C127   1.265       .  A
O120       Al128   1.941       .  S
O121        C130   1.264       .  A
O121       Al128   1.927       .  S
O122       Al128   1.892       .  S
O123        C130   1.264   1_655  A
O124       Al128   1.775       .  S
O125        C126   1.262       .  A
C126        C538   1.473       .  S
C127        C501   1.491       .  S
C130        C534   1.478       .  S
C131        O132   1.268       .  A
C131        C509   1.475       .  S
O133        C148   1.259       .  A
O133       Al141   1.890       .  S
C134        O144   1.269       .  A
C134        O135   1.265       .  A
C134        C489   1.483       .  S
O135       Al137   1.928       .  S
O136        C138   1.267       .  A
O136       Al749   1.916   1_554  S
Al137       O145   1.911       .  S
Al137       O147   1.925       .  S
Al137       O748   1.907       .  S
Al137       O146   1.776       .  S
C138        O151   1.267       .  A
C138        C497   1.480       .  S
O139        C761   1.262       .  A
O139       Al753   1.897       .  S
O140        C153   1.264       .  A
O140       Al150   1.919       .  S
Al141       O154   1.933       .  S
Al141       O751   1.887       .  S
Al141       O763   1.927       .  S
Al141       O146   1.776       .  S
O142        C149   1.259       .  A
O142       Al150   1.916       .  S
O143        C152   1.260       .  A
O143       Al150   1.897       .  S
O144       Al150   1.933       .  S
O145        C152   1.265       .  A
O146       Al150   1.782       .  S
O147        C148   1.262       .  A
C148       C1206   1.472       .  S
C149        O751   1.257       .  A
C149        C549   1.469       .  S
O151       Al753   1.941   1_554  S
C152        C494   1.463       .  S
C153        O154   1.268       .  A
C153        C562   1.477       .  S
O155        C170   1.262       .  A
O155       Al163   1.902       .  S
C156        O166   1.260       .  A
C156        O157   1.264       .  A
C156        C514   1.471       .  S
O157       Al159   1.940       .  S
O158        C160   1.263       .  A
O158       Al159   1.880       .  S
Al159       O167   1.884       .  S
Al159       O169   1.946       .  S
Al159       O168   1.770       .  S
C160        O173   1.263       .  A
C160        C485   1.450       .  S
O161        C171   1.252       .  A
O161       Al163   1.868       .  S
O162        C175   1.255       .  A
O162       Al172   1.882       .  S
Al163       O176   1.923       .  S
Al163       O173   1.917       .  S
Al163       O168   1.772       .  S
O164        C171   1.267       .  A
O164       Al172   1.940       .  S
O165        C174   1.267       .  A
O165       Al172   1.933       .  S
O166       Al172   1.894       .  S
O167        C174   1.267       .  A
O168       Al172   1.773       .  S
O169        C170   1.266       .  A
C170        C498   1.482       .  S
C171        C526   1.466       .  S
C174        C493   1.472       .  S
C175        O176   1.267       .  A
C175        C590   1.468       .  S
O177        C192   1.258       .  A
O177       Al185   1.886       .  S
C178        O188   1.262       .  A
C178        O179   1.267       .  A
C178        C473   1.479       .  S
O179       Al181   1.946       .  S
O180        C182   1.260       .  A
O180       Al181   1.886       .  S
Al181       O189   1.873       .  S
Al181       O191   1.957       .  S
Al181       O190   1.764       .  S
C182        O195   1.265       .  A
C182        C545   1.463       .  S
O183        C193   1.255       .  A
O183       Al185   1.867       .  S
O184        C197   1.259       .  A
O184       Al194   1.901       .  S
Al185       O198   1.931       .  S
Al185       O195   1.932       .  S
Al185       O190   1.769       .  S
O186        C193   1.268       .  A
O186       Al194   1.934       .  S
O187        C196   1.265       .  A
O187       Al194   1.931       .  S
O188       Al194   1.905       .  S
O189        C196   1.262       .  A
O190       Al194   1.772       .  S
O191        C192   1.271       .  A
C192        C482   1.473       .  S
C193        C469   1.458       .  S
C196        C477   1.471       .  S
C197        O198   1.266       .  A
C197        C518   1.479       .  S
O199        C214   1.254       .  A
O199       Al207   1.882       .  S
C200        O210   1.267       .  A
C200        O201   1.262       .  A
C200        C541   1.469       .  S
O201       Al203   1.920       .  S
O202        C204   1.257       .  A
O202       Al815   1.888   1_554  S
Al203       O211   1.899       .  S
Al203       O213   1.923       .  S
Al203       O814   1.879       .  S
Al203       O212   1.782       .  S
C204        O217   1.268       .  A
C204        C481   1.472       .  S
O205        C827   1.258   1_554  A
O205       Al819   1.879   1_554  S
O206        C219   1.262       .  A
O206       Al216   1.891       .  S
Al207       O220   1.951       .  S
Al207       O817   1.890       .  S
Al207       O829   1.955       .  S
Al207       O212   1.775       .  S
O208        C215   1.257       .  A
O208       Al216   1.913       .  S
O209        C218   1.264       .  A
O209       Al216   1.909       .  S
O210       Al216   1.923       .  S
O211        C218   1.265       .  A
O212       Al216   1.781       .  S
O213        C214   1.259       .  A
C214       C1134   1.474       .  S
C215        O817   1.254       .  A
C215        C461   1.476   1_655  S
O217       Al819   1.950   1_554  S
C218        C478   1.460       .  S
C219        O220   1.275       .  A
C219        C465   1.480   1_655  S
O221        C236   1.256       .  A
O221       Al229   1.898       .  S
C222        O232   1.266       .  A
C222        O223   1.263       .  A
C222        C574   1.478       .  S
O223       Al225   1.924       .  S
O224        C226   1.267       .  A
O224       Al225   1.904       .  S
Al225       O233   1.922       .  S
Al225       O235   1.929       .  S
Al225       O234   1.781       .  S
C226        O239   1.264       .  A
C226        C457   1.468       .  S
O227        C237   1.259       .  A
O227       Al229   1.900       .  S
O228        C241   1.263       .  A
O228       Al238   1.907       .  S
Al229       O242   1.905       .  S
Al229       O239   1.921       .  S
Al229       O234   1.781       .  S
O230        C237   1.258       .  A
O230       Al238   1.907       .  S
O231        C240   1.265       .  A
O231       Al238   1.917       .  S
O232       Al238   1.931       .  S
O233        C240   1.269       .  A
O234       Al238   1.787       .  S
O235        C236   1.261       .  A
C236        C466   1.476       .  S
C237        C510   1.475       .  S
C240        C453   1.479       .  S
C241        O242   1.264       .  A
C241        C529   1.467       .  S
O243        C258   1.264       .  A
O243       Al251   1.907       .  S
C244        O254   1.258       .  A
C244        O245   1.267       .  A
C244        C449   1.462       .  S
O245       Al247   1.940       .  S
O246        C860   1.256   1_554  A
O246       Al247   1.876       .  S
Al247       O255   1.899       .  S
Al247       O257   1.956       .  S
Al247       O256   1.775       .  S
C248        O261   1.265       .  A
C248        O858   1.263       .  A
C248        C578   1.467       .  S
O249        C871   1.259       .  A
O249       Al251   1.899       .  S
O250        C263   1.260       .  A
O250       Al260   1.882       .  S
Al251       O264   1.930       .  S
Al251       O261   1.925       .  S
Al251       O868   1.775       .  S
O252        C259   1.264   1_554  A
O252       Al260   1.924       .  S
O253        C262   1.263       .  A
O253       Al260   1.930       .  S
O254       Al260   1.869       .  S
O255        C262   1.263       .  A
O256       Al260   1.775       .  S
O256       Al863   1.778   1_554  S
O257        C870   1.271   1_554  A
C258        O869   1.257       .  A
C258        C458   1.468       .  S
C259        O861   1.263       .  A
C259       C1058   1.473       .  S
C262        C454   1.483       .  S
C263        O876   1.266   1_554  A
C263        C462   1.460       .  S
O264        C875   1.268       .  A
O265        C280   1.261       .  A
O265       Al273   1.915       .  S
C266        O276   1.266       .  A
C266        O267   1.262       .  A
C266        C502   1.485       .  S
O267       Al269   1.923       .  S
O268        C270   1.266       .  A
O268       Al269   1.904       .  S
Al269       O277   1.932       .  S
Al269       O279   1.922       .  S
Al269       O278   1.784       .  S
C270        O283   1.267       .  A
C270        C441   1.474       .  S
O271        C281   1.261       .  A
O271       Al273   1.910       .  S
O272        C285   1.261       .  A
O272       Al282   1.908       .  S
Al273       O286   1.920       .  S
Al273       O283   1.936       .  S
Al273       O278   1.791       .  S
O274        C281   1.258       .  A
O274       Al282   1.910       .  S
O275        C284   1.262       .  A
O275       Al282   1.911       .  S
O276       Al282   1.938       .  S
O277        C284   1.270       .  A
O278       Al282   1.781       .  S
O279        C280   1.262       .  A
C280        C434   1.483       .  S
C281        C425   1.468       .  S
C284        C437   1.484       .  S
C285        O286   1.265       .  A
C285        C430   1.471       .  S
O287        C302   1.265       .  A
O287       Al295   1.911       .  S
C288        O298   1.260       .  A
C288        O289   1.260       .  A
C288        C486   1.449   1_455  S
O289       Al291   1.911       .  S
O290        C904   1.264   1_554  A
O290       Al291   1.921       .  S
Al291       O299   1.913       .  S
Al291       O301   1.912       .  S
Al291       O300   1.786       .  S
C292        O305   1.262       .  A
C292        O902   1.260       .  A
C292        C506   1.465       .  S
O293        C915   1.262       .  A
O293       Al295   1.912       .  S
O294        C307   1.259       .  A
O294       Al304   1.882       .  S
Al295       O308   1.928       .  S
Al295       O305   1.920       .  S
Al295       O912   1.777       .  S
O296        C303   1.263   1_554  A
O296       Al304   1.931       .  S
O297        C306   1.263       .  A
O297       Al304   1.926       .  S
O298       Al304   1.870       .  S
O299        C306   1.265       .  A
O300       Al304   1.777       .  S
O300       Al907   1.776   1_554  S
O301        C914   1.261   1_554  A
C302        O913   1.262       .  A
C302        C442   1.474       .  S
C303        O905   1.266       .  A
C303       C1102   1.486   1_455  S
C306        C438   1.488       .  S
C307        O920   1.265   1_554  A
C307        C421   1.466       .  S
O308        C919   1.268       .  A
O309        C324   1.260       .  A
O309       Al317   1.908       .  S
C310        O320   1.259       .  A
C310        O311   1.270       .  A
C310        C470   1.460       .  S
O311       Al313   1.930       .  S
O312        C314   1.264       .  A
O312       Al313   1.891       .  S
Al313       O321   1.915       .  S
Al313       O323   1.915       .  S
Al313       O322   1.766       .  S
C314        O327   1.268       .  A
C314        C418   1.480       .  S
O315        C325   1.265       .  A
O315       Al317   1.921       .  S
O316        C329   1.259       .  A
O316       Al326   1.878       .  S
Al317       O330   1.932       .  S
Al317       O327   1.948       .  S
Al317       O322   1.770       .  S
O318        C325   1.255       .  A
O318       Al326   1.892       .  S
O319        C328   1.259       .  A
O319       Al326   1.909       .  S
O320       Al326   1.886       .  S
O321        C328   1.265       .  A
O322       Al326   1.778       .  S
O323        C324   1.263       .  A
C324        C429   1.477   1_545  S
C325        C405   1.469       .  S
C328        C413   1.468       .  S
C329        O330   1.272       .  A
C329        C409   1.452       .  S
O331        C346   1.270   1_565  A
O331       Al339   1.935       .  S
C332        O342   1.260       .  A
C332        O333   1.260       .  A
C332        C554   1.462       .  S
O333       Al335   1.918   1_565  S
O334        C336   1.263       .  A
O334       Al335   1.900       .  S
Al335       O343   1.895       .  S
Al335       O345   1.906       .  S
Al335       O344   1.778   1_545  S
C336        O349   1.270   1_545  A
C336        C474   1.482       .  S
O337        C347   1.266       .  A
O337       Al339   1.930       .  S
O338        C351   1.257       .  A
O338       Al348   1.890       .  S
Al339       O352   1.975       .  S
Al339       O349   1.949       .  S
Al339       O344   1.780       .  S
O340        C347   1.264       .  A
O340       Al348   1.937       .  S
O341        C350   1.266       .  A
O341       Al348   1.935       .  S
O342       Al348   1.900       .  S
O343        C350   1.264   1_545  A
O344       Al348   1.773       .  S
O345        C346   1.260       .  A
C346        C417   1.477       .  S
C347        C558   1.492       .  S
C350        C414   1.481       .  S
C351        O352   1.273       .  A
C351        C426   1.480       .  S
O353        C368   1.258       .  A
O353       Al361   1.892       .  S
C354        O364   1.262       .  A
C354        O355   1.265       .  A
C354        C586   1.465       .  S
O355       Al357   1.937       .  S
O356        C358   1.259       .  A
O356       Al357   1.878       .  S
Al357       O365   1.878       .  S
Al357       O367   1.948       .  S
Al357       O366   1.766       .  S
C358        O371   1.267       .  A
C358        C450   1.463       .  S
O359        C369   1.255       .  A
O359       Al361   1.881       .  S
O360        C373   1.255       .  A
O360       Al370   1.878       .  S
Al361       O374   1.935       .  S
Al361       O371   1.938       .  S
Al361       O366   1.766       .  S
O362        C369   1.268       .  A
O362       Al370   1.946       .  S
O363        C372   1.267       .  A
O363       Al370   1.937       .  S
O364       Al370   1.887       .  S
O365        C372   1.263       .  A
O366       Al370   1.773       .  S
O367        C368   1.268       .  A
C368        C401   1.475       .  S
C369        C598   1.470       .  S
C372        C397   1.472       .  S
C373        O374   1.270       .  A
C373        C406   1.471       .  S
O375        C390   1.257       .  A
O375       Al383   1.887       .  S
C376        O386   1.267       .  A
C376        O377   1.263       .  A
C376        C445   1.478       .  S
O377       Al379   1.927       .  S
O378        C380   1.258       .  A
O378       Al991   1.890   1_554  S
Al379       O387   1.899       .  S
Al379       O389   1.932       .  S
Al379       O990   1.879       .  S
Al379       O388   1.778       .  S
C380        O393   1.269       .  A
C380        C402   1.472       .  S
O381       C1003   1.259       .  A
O381       Al995   1.871       .  S
O382        C395   1.264       .  A
O382       Al392   1.912       .  S
Al383       O396   1.945       .  S
Al383       O993   1.882       .  S
Al383      O1005   1.941       .  S
Al383       O388   1.771       .  S
O384        C391   1.259       .  A
O384       Al392   1.918       .  S
O385        C394   1.265       .  A
O385       Al392   1.912       .  S
O386       Al392   1.934       .  S
O387        C394   1.265       .  A
O388       Al392   1.776       .  S
O389        C390   1.262       .  A
C390       C1022   1.474       .  S
C391        O993   1.254       .  A
C391        C422   1.470   1_545  S
O393       Al995   1.954   1_554  S
C394        C398   1.462       .  S
C395        O396   1.272       .  A
C395        C433   1.481   1_545  S
C397        C398   1.340       .  D
C397        H399   1.087       .  S
C398        H400   1.088       .  S
C401        C402   1.344       .  D
C401        H403   1.088       .  S
C402        H404   1.087       .  S
C405        C406   1.333       .  D
C405        H407   1.088       .  S
C406        H408   1.087       .  S
C409        C410   1.335       .  D
C409        H411   1.087       .  S
C410       C1002   1.460   1_554  S
C410        H412   1.089       .  S
C413       C1026   1.337   1_544  D
C413        H415   1.089   1_554  S
C414       C1025   1.343   1_565  D
C414        H416   1.087       .  S
C417        C418   1.337       .  D
C417        H419   1.088       .  S
C418        H420   1.086       .  S
C421       C1034   1.344   1_554  D
C421       H1035   1.087       .  S
C422       C1033   1.343       .  D
C422       H1036   1.087       .  S
H423       C1033   1.087       .  S
H424       C1034   1.087       .  S
C425        C426   1.345       .  D
C425        H427   1.087       .  S
C426        H428   1.087       .  S
C429        C430   1.347       .  D
C429        H431   1.086       .  S
C430        H432   1.087       .  S
C433        C434   1.351       .  D
C433        H435   1.086       .  S
C434        H436   1.086   1_565  S
C437        C438   1.343       .  D
C437        H439   1.086       .  S
C438        H440   1.086       .  S
C441        C442   1.336       .  D
C441        H443   1.086       .  S
C442        H444   1.087       .  S
C445        C446   1.347       .  D
C445        H447   1.087       .  S
C446        C871   1.487       .  S
C446        H448   1.087       .  S
C449        C450   1.342       .  D
C449        H451   1.087       .  S
C450        H452   1.087       .  S
C453        C454   1.343       .  D
C453        H455   1.086       .  S
C454        H456   1.085       .  S
C457        C458   1.330       .  D
C457        H459   1.085       .  S
C458        H460   1.087       .  S
C461       C1074   1.345       .  D
C461        H463   1.086       .  S
C462       C1073   1.340   1_554  D
C462        H464   1.087       .  S
C465        C466   1.352       .  D
C465        H467   1.083       .  S
C466        H468   1.085   1_455  S
C469        C470   1.332       .  D
C469        H471   1.088       .  S
C470        H472   1.086       .  S
C473        C474   1.346       .  D
C473        H475   1.087       .  S
C474        H476   1.088       .  S
C477        C478   1.340       .  D
C477        H479   1.087       .  S
C478        H480   1.088       .  S
C481        C482   1.342       .  D
C481        H483   1.088       .  S
C482        H484   1.088       .  S
C485        C486   1.332       .  D
C485        H487   1.089       .  S
C486        H488   1.088       .  S
C489        C490   1.344       .  D
C489        H491   1.087       .  S
C490        C915   1.488   1_655  S
C490       H1104   1.086       .  S
H492       C1102   1.086       .  S
C493        C494   1.337       .  D
C493        H495   1.088       .  S
C494        H496   1.089       .  S
C497        C498   1.340       .  D
C497        H499   1.086       .  S
C498        H500   1.087       .  S
C501        C502   1.346       .  D
C501        H503   1.087       .  S
C502        H504   1.087       .  S
C505        C506   1.337       .  D
C505        H507   1.086       .  S
C506        H508   1.087       .  S
C509        C510   1.341       .  D
C509        H511   1.086       .  S
C510        H512   1.086       .  S
C513        C514   1.340       .  D
C513        H515   1.087       .  S
C514        H516   1.086       .  S
C517        C518   1.341       .  D
C517        H519   1.087       .  S
C518        H520   1.086       .  S
C521        C522   1.337       .  D
C521        H523   1.086       .  S
C522        C826   1.463       .  S
C522        H524   1.088       .  S
C525        C526   1.334       .  D
C525        H527   1.087       .  S
C526        H528   1.088       .  S
C529        C530   1.343       .  D
C529        H531   1.089       .  S
C530        H532   1.086       .  S
C533       C1146   1.348   1_654  D
C533        H535   1.087   1_554  S
C534       C1145   1.342   1_455  D
C534        H536   1.087       .  S
C537        C538   1.338       .  D
C537        H539   1.087       .  S
C538        H540   1.087       .  S
C541        C542   1.339       .  D
C541        H543   1.087       .  S
C542        C695   1.477       .  S
C542        H544   1.087       .  S
C545        C546   1.340       .  D
C545        H547   1.087       .  S
C546        H548   1.086       .  S
C549       C1162   1.341       .  D
C549        H551   1.086       .  S
C550       C1161   1.339   1_554  D
C550        H552   1.086       .  S
C553        C554   1.341       .  D
C553        H555   1.087       .  S
C554        H556   1.086       .  S
C557        C558   1.346       .  D
C557        H559   1.087       .  S
C558        H560   1.086       .  S
C561        C562   1.350       .  D
C561        H563   1.087       .  S
C562        H564   1.087       .  S
C565        C566   1.344       .  D
C565        H567   1.087       .  S
C566        H568   1.086       .  S
C569        C570   1.335       .  D
C569        H571   1.087       .  S
C570        H572   1.087       .  S
C573        C574   1.346       .  D
C573        H575   1.087       .  S
C574        H576   1.087       .  S
C577        C578   1.338       .  D
C577        H579   1.086       .  S
C578        H580   1.087       .  S
C581        C582   1.342       .  D
C581        H583   1.087       .  S
C582        H584   1.087       .  S
C585        C586   1.340       .  D
C585        H587   1.087       .  S
C586        H588   1.086       .  S
C589        C590   1.335       .  D
C589        H591   1.087       .  S
C590        H592   1.086       .  S
C593        C594   1.342   1_554  D
C593        H595   1.087       .  S
C594        C760   1.467       .  S
C594       H1208   1.086       .  S
H596       C1206   1.086       .  S
C597        C598   1.337       .  D
C597        H599   1.086       .  S
C598        H600   1.087       .  S
C601        C602   1.346       .  D
C601        H603   1.087       .  S
C602        H604   1.086       .  S
C605       C1218   1.337       .  D
C605        H607   1.088       .  S
C606       C1217   1.338       .  D
C606        H608   1.088       .  S
C609        C610   1.339       .  D
C609        H611   1.086       .  S
C610        H612   1.088       .  S
O613        C628   1.256       .  A
O613       Al621   1.888       .  S
C614        O624   1.260       .  A
C614        O615   1.262       .  A
C614       C1209   1.467       .  S
O615       Al617   1.910       .  S
O616        C618   1.258       .  A
O616       Al617   1.892       .  S
Al617       O625   1.883       .  S
Al617       O627   1.927       .  S
Al617       O626   1.777       .  S
C618        O631   1.267       .  A
C618       C1221   1.482       .  S
O619        C629   1.266       .  A
O619       Al621   1.902       .  S
O620        C633   1.260       .  A
O620       Al630   1.902       .  S
Al621       O634   1.918       .  S
Al621       O631   1.957       .  S
Al621       O626   1.776       .  S
O622        C629   1.265       .  A
O622       Al630   1.921       .  S
O623        C632   1.266       .  A
O623       Al630   1.913       .  S
O624       Al630   1.900       .  S
O625        C632   1.257       .  A
O626       Al630   1.783       .  S
O627        C628   1.267       .  A
C628       C1214   1.463       .  S
C629       C1201   1.473       .  S
C632       C1217   1.468       .  S
C633        O634   1.263       .  A
C633       C1205   1.469       .  S
O635        C650   1.263       .  A
O635       Al643   1.917       .  S
C636        O646   1.261       .  A
C636        O637   1.263       .  A
C636       C1189   1.461       .  S
O637       Al639   1.927       .  S
O638        C640   1.262       .  A
O638       Al639   1.889       .  S
Al639       O647   1.896       .  S
Al639       O649   1.926       .  S
Al639       O648   1.777       .  S
C640        O653   1.271       .  A
C640       C1197   1.475       .  S
O641        C651   1.261       .  A
O641       Al643   1.905       .  S
O642        C655   1.257       .  A
O642       Al652   1.876       .  S
Al643       O656   1.946       .  S
Al643       O653   1.945       .  S
Al643       O648   1.772       .  S
O644        C651   1.260       .  A
O644       Al652   1.920       .  S
O645        C654   1.264       .  A
O645       Al652   1.925       .  S
O646       Al652   1.895       .  S
O647        C654   1.265       .  A
O648       Al652   1.777       .  S
O649        C650   1.262       .  A
C650       C1222   1.480       .  S
C651       C1185   1.478       .  S
C654       C1218   1.473       .  S
C655        O656   1.272       .  A
C655       C1193   1.470       .  S
O657        C672   1.261       .  A
O657       Al665   1.911       .  S
C658        O668   1.265       .  A
C658        O659   1.262       .  A
C658       C1169   1.477       .  S
O659       Al661   1.923       .  S
O660        C662   1.266       .  A
O660       Al661   1.908       .  S
Al661       O669   1.916       .  S
Al661       O671   1.924       .  S
Al661       O670   1.777       .  S
C662        O675   1.261       .  A
C662       C1182   1.465       .  S
O663        C673   1.262       .  A
O663       Al665   1.898       .  S
O664        C677   1.263       .  A
O664       Al674   1.902       .  S
Al665       O678   1.906       .  S
Al665       O675   1.918       .  S
Al665       O670   1.783       .  S
O666        C673   1.259       .  A
O666       Al674   1.907       .  S
O667        C676   1.263       .  A
O667       Al674   1.912       .  S
O668       Al674   1.919       .  S
O669        C676   1.267       .  A
O670       Al674   1.782       .  S
O671        C672   1.264       .  A
C672       C1173   1.485       .  S
C673       C1194   1.471       .  S
C676       C1177   1.476       .  S
C677        O678   1.262       .  A
C677       C1213   1.460       .  S
O679        C694   1.261       .  A
O679       Al687   1.888       .  S
C680        O690   1.263       .  A
C680        O681   1.262       .  A
C680       C1158   1.461   1_565  S
O681       Al683   1.920       .  S
O682       Al683   1.881       .  S
Al683       O691   1.901       .  S
Al683       O693   1.919       .  S
Al683       O692   1.778       .  S
C684        O697   1.268       .  A
C684       C1165   1.465       .  S
O685       Al687   1.860       .  S
O686        C699   1.260       .  A
O686       Al696   1.886       .  S
Al687       O700   1.944       .  S
Al687       O697   1.937       .  S
O688        C695   1.261   1_565  A
O688       Al696   1.924       .  S
O689        C698   1.265       .  A
O689       Al696   1.931       .  S
O690       Al696   1.899       .  S
O691        C698   1.265       .  A
O692       Al696   1.774       .  S
C694       C1181   1.470       .  S
C698       C1178   1.479       .  S
C699       C1162   1.468       .  S
O701        C716   1.254   1_655  A
O701       Al709   1.882       .  S
C702        O712   1.260       .  A
C702        O703   1.266       .  A
C702       C1137   1.475       .  S
O703       Al705   1.920       .  S
O704        C706   1.260       .  A
O704       Al705   1.890       .  S
Al705       O713   1.907       .  S
Al705       O715   1.925       .  S
Al705       O714   1.779       .  S
C706        O719   1.269       .  A
C706       C1149   1.475       .  S
O707        C717   1.258       .  A
O707       Al709   1.897       .  S
O708        C721   1.265       .  A
O708       Al718   1.898       .  S
Al709       O722   1.926       .  S
Al709       O719   1.945       .  S
Al709       O714   1.777       .  S
O710        C717   1.255       .  A
O710       Al718   1.891       .  S
O711        C720   1.264       .  A
O711       Al718   1.924       .  S
O712       Al718   1.907       .  S
O713        C720   1.265       .  A
O714       Al718   1.786       .  S
O715        C716   1.260   1_655  A
C716       C1142   1.468       .  S
C717       C1129   1.465       .  S
C720       C1145   1.477       .  S
C721        O722   1.269       .  A
C721       C1133   1.471       .  S
O723        C738   1.260   1_455  A
O723       Al731   1.892       .  S
C724        O734   1.259       .  A
C724        O725   1.264       .  A
C724       C1117   1.481       .  S
O725       Al727   1.946   1_455  S
O726        C728   1.259       .  A
O726       Al727   1.883       .  S
Al727       O735   1.880   1_655  S
Al727       O737   1.953       .  S
Al727       O736   1.779   1_655  S
C728        O741   1.270   1_655  A
C728       C1125   1.479       .  S
O729        C739   1.260       .  A
O729       Al731   1.895       .  S
O730        C743   1.261       .  A
O730       Al740   1.905       .  S
Al731       O744   1.963       .  S
Al731       O741   1.961       .  S
Al731       O736   1.778       .  S
O732        C739   1.270       .  A
O732       Al740   1.953       .  S
O733        C742   1.270       .  A
O733       Al740   1.949       .  S
O734       Al740   1.895       .  S
O735        C742   1.263       .  A
O736       Al740   1.771       .  S
O737        C738   1.270       .  A
C738       C1150   1.475       .  S
C739       C1113   1.486       .  S
C742       C1146   1.481       .  S
C743        O744   1.269       .  A
C743       C1121   1.487       .  S
O745        C760   1.257       .  A
O745       Al753   1.903       .  S
C746        O756   1.269       .  A
C746        O747   1.261       .  A
C746       C1101   1.481       .  S
O747       Al749   1.914       .  S
O748        C750   1.265       .  A
Al749       O757   1.910       .  S
Al749       O759   1.906       .  S
Al749       O758   1.780       .  S
C750        O763   1.264       .  A
C750       C1109   1.471       .  S
O752        C765   1.264       .  A
O752       Al762   1.923       .  S
Al753       O766   1.920       .  S
Al753       O758   1.779       .  S
O754        C761   1.262       .  A
O754       Al762   1.920       .  S
O755        C764   1.263       .  A
O755       Al762   1.906       .  S
O756       Al762   1.939       .  S
O757        C764   1.264       .  A
O758       Al762   1.779       .  S
O759        C760   1.262       .  A
C761       C1161   1.476       .  S
C764       C1106   1.467       .  S
C765        O766   1.264       .  A
C765       C1174   1.474       .  S
O767        C782   1.260       .  A
O767       Al775   1.891       .  S
C768        O778   1.261       .  A
C768        O769   1.265       .  A
C768       C1126   1.473       .  S
O769       Al771   1.936       .  S
O770        C772   1.260       .  A
O770       Al771   1.878       .  S
Al771       O779   1.870       .  S
Al771       O781   1.948       .  S
Al771       O780   1.768       .  S
C772        O785   1.267       .  A
C772       C1097   1.463       .  S
O773        C783   1.254       .  A
O773       Al775   1.866       .  S
O774        C787   1.258       .  A
O774       Al784   1.892       .  S
Al775       O788   1.930       .  S
Al775       O785   1.937       .  S
Al775       O780   1.768       .  S
O776        C783   1.270       .  A
O776       Al784   1.952       .  S
O777        C786   1.271       .  A
O777       Al784   1.955       .  S
O778       Al784   1.903       .  S
O779        C786   1.261       .  A
O780       Al784   1.773       .  S
O781        C782   1.267       .  A
C782       C1110   1.474       .  S
C783       C1138   1.466       .  S
C786       C1105   1.480       .  S
C787        O788   1.267       .  A
C787       C1202   1.474       .  S
O789        C804   1.257       .  A
O789       Al797   1.885       .  S
C790        O800   1.258       .  A
C790        O791   1.269       .  A
C790       C1085   1.477       .  S
O791       Al793   1.953       .  S
O792        C794   1.255       .  A
O792       Al793   1.867       .  S
Al793       O801   1.860       .  S
Al793       O803   1.965       .  S
Al793       O802   1.766       .  S
C794        O807   1.267       .  A
C794       C1157   1.468       .  S
O795        C805   1.263       .  A
O795       Al797   1.879       .  S
O796        C809   1.259       .  A
O796       Al806   1.895       .  S
Al797       O810   1.918       .  S
Al797       O807   1.950       .  S
Al797       O802   1.771       .  S
O798        C805   1.270       .  A
O798       Al806   1.945       .  S
O799        C808   1.271       .  A
O799       Al806   1.957       .  S
O800       Al806   1.890       .  S
O801        C808   1.253       .  A
O802       Al806   1.771       .  S
O803        C804   1.273       .  A
C804       C1094   1.475       .  S
C805       C1081   1.474       .  S
C808       C1089   1.470       .  S
C809        O810   1.265       .  A
C809       C1130   1.469       .  S
O811        C826   1.259   1_556  A
O811       Al819   1.878       .  S
C812        O822   1.256       .  A
C812        O813   1.264       .  A
C812       C1153   1.469       .  S
O813       Al815   1.917       .  S
O814        C816   1.259       .  A
Al815       O823   1.892       .  S
Al815       O825   1.923   1_556  S
Al815       O824   1.777       .  S
C816        O829   1.273       .  A
C816       C1093   1.474       .  S
O818        C831   1.264       .  A
O818       Al828   1.903       .  S
Al819       O832   1.936       .  S
Al819       O824   1.766       .  S
O820        C827   1.260       .  A
O820       Al828   1.908       .  S
O821        C830   1.271       .  A
O821       Al828   1.930       .  S
O822       Al828   1.896       .  S
O823        C830   1.260       .  A
O824       Al828   1.779       .  S
O825        C826   1.263       .  A
C827       C1073   1.459   1_655  S
C830       C1090   1.478       .  S
C831        O832   1.269       .  A
C831       C1077   1.478   1_655  S
O833        C848   1.254       .  A
O833       Al841   1.883       .  S
C834        O844   1.266       .  A
C834        O835   1.262       .  A
C834       C1186   1.472       .  S
O835       Al837   1.920       .  S
O836        C838   1.260       .  A
O836       Al837   1.887       .  S
Al837       O845   1.923       .  S
Al837       O847   1.924       .  S
Al837       O846   1.795       .  S
C838        O851   1.270       .  A
C838       C1069   1.477       .  S
O839        C849   1.255       .  A
O839       Al841   1.907       .  S
O840        C853   1.264       .  A
O840       Al850   1.892       .  S
Al841       O854   1.920       .  S
Al841       O851   1.945       .  S
Al841       O846   1.797       .  S
O842        C849   1.257       .  A
O842       Al850   1.920       .  S
O843        C852   1.264       .  A
O843       Al850   1.927       .  S
O844       Al850   1.919       .  S
O845        C852   1.266       .  A
O846       Al850   1.792       .  S
O847        C848   1.260       .  A
C848       C1078   1.481       .  S
C849       C1122   1.479       .  S
C852       C1065   1.489       .  S
C853        O854   1.270       .  A
C853       C1141   1.469       .  S
O855        C870   1.260       .  A
O855       Al863   1.894       .  S
C856        O866   1.261       .  A
C856        O857   1.259       .  A
C856       C1061   1.459       .  S
O857       Al859   1.909       .  S
O858       Al859   1.894       .  S
Al859       O867   1.911       .  S
Al859       O869   1.904       .  S
Al859       O868   1.783       .  S
C860        O873   1.262       .  A
C860       C1190   1.466       .  S
O861       Al863   1.903       .  S
O862        C875   1.262       .  A
O862       Al872   1.898       .  S
Al863       O876   1.913       .  S
Al863       O873   1.928       .  S
O864        C871   1.264       .  A
O864       Al872   1.939       .  S
O865        C874   1.271       .  A
O865       Al872   1.954       .  S
O866       Al872   1.905       .  S
O867        C874   1.266       .  A
O868       Al872   1.773       .  S
C870       C1070   1.481       .  S
C874       C1066   1.494       .  S
C875       C1074   1.477       .  S
O877        C892   1.266       .  A
O877       Al885   1.902       .  S
C878        O888   1.258       .  A
C878        O879   1.270       .  A
C878       C1114   1.484       .  S
O879       Al881   1.958       .  S
O880        C882   1.260       .  A
O880       Al881   1.891       .  S
Al881       O889   1.917       .  S
Al881       O891   1.945       .  S
Al881       O890   1.776       .  S
C882        O895   1.261       .  A
C882       C1053   1.468       .  S
O883        C893   1.260       .  A
O883       Al885   1.896       .  S
O884        C897   1.262       .  A
O884       Al894   1.896       .  S
Al885       O898   1.931       .  S
Al885       O895   1.928       .  S
Al885       O890   1.788       .  S
O886        C893   1.260       .  A
O886       Al894   1.919       .  S
O887        C896   1.263       .  A
O887       Al894   1.924       .  S
O888       Al894   1.897       .  S
O889        C896   1.264       .  A
O890       Al894   1.781       .  S
O891        C892   1.269       .  A
C892       C1046   1.486       .  S
C893       C1037   1.463       .  S
C896       C1049   1.486       .  S
C897        O898   1.268       .  A
C897       C1042   1.467       .  S
O899        C914   1.266       .  A
O899       Al907   1.910       .  S
C900        O910   1.260       .  A
C900        O901   1.261       .  A
C900       C1098   1.458   1_455  S
O901       Al903   1.919       .  S
O902       Al903   1.887       .  S
Al903       O911   1.906       .  S
Al903       O913   1.921       .  S
Al903       O912   1.782       .  S
C904        O917   1.262       .  A
C904       C1118   1.478       .  S
O905       Al907   1.920       .  S
O906        C919   1.261       .  A
O906       Al916   1.889       .  S
Al907       O920   1.927       .  S
Al907       O917   1.919       .  S
O908        C915   1.264       .  A
O908       Al916   1.939       .  S
O909        C918   1.267       .  A
O909       Al916   1.939       .  S
O910       Al916   1.886       .  S
O911        C918   1.265       .  A
O912       Al916   1.775       .  S
C914       C1054   1.468       .  S
C918       C1050   1.488       .  S
C919       C1033   1.470       .  S
O921        C936   1.253       .  A
O921       Al929   1.892       .  S
C922        O932   1.263       .  A
C922        O923   1.261       .  A
C922       C1082   1.461       .  S
O923       Al925   1.912       .  S
O924        C926   1.261       .  A
O924       Al925   1.892       .  S
Al925       O933   1.914       .  S
Al925       O935   1.918       .  S
Al925       O934   1.782       .  S
C926        O939   1.273       .  A
C926       C1030   1.485       .  S
O927        C937   1.261       .  A
O927       Al929   1.906       .  S
O928        C941   1.263       .  A
O928       Al938   1.900       .  S
Al929       O942   1.930       .  S
Al929       O939   1.968       .  S
Al929       O934   1.776       .  S
O930        C937   1.258       .  A
O930       Al938   1.906       .  S
O931        C940   1.265       .  A
O931       Al938   1.918       .  S
O932       Al938   1.912       .  S
O933        C940   1.267       .  A
O934       Al938   1.783       .  S
O935        C936   1.260       .  A
C936       C1041   1.468   1_545  S
C937       C1017   1.477       .  S
C940       C1025   1.475       .  S
C941        O942   1.269       .  A
C941       C1021   1.475       .  S
O943        C958   1.261   1_565  A
O943       Al951   1.901       .  S
C944        O954   1.259       .  A
C944        O945   1.266       .  A
C944       C1166   1.467       .  S
O945       Al947   1.943   1_565  S
O946        C948   1.257       .  A
O946       Al947   1.882       .  S
Al947       O955   1.895       .  S
Al947       O957   1.960       .  S
Al947       O956   1.780   1_545  S
C948        O961   1.272   1_545  A
C948       C1086   1.481       .  S
O949        C959   1.264       .  A
O949       Al951   1.913       .  S
O950        C963   1.258       .  A
O950       Al960   1.879       .  S
Al951       O964   1.960       .  S
Al951       O961   1.964       .  S
Al951       O956   1.772       .  S
O952        C959   1.262       .  A
O952       Al960   1.927       .  S
O953        C962   1.262       .  A
O953       Al960   1.918       .  S
O954       Al960   1.876       .  S
O955        C962   1.265   1_545  A
O956       Al960   1.772       .  S
O957        C958   1.271       .  A
C958       C1029   1.485       .  S
C959       C1170   1.478       .  S
C962       C1026   1.470       .  S
C963        O964   1.272       .  A
C963       C1038   1.472       .  S
O965        C980   1.257       .  A
O965       Al973   1.883       .  S
C966        O976   1.259       .  A
C966        O967   1.266       .  A
C966       C1198   1.470       .  S
O967       Al969   1.945       .  S
O968        C970   1.253       .  A
O968       Al969   1.854       .  S
Al969       O977   1.860       .  S
Al969       O979   1.945       .  S
Al969       O978   1.766       .  S
C970        O983   1.271       .  A
C970       C1062   1.471       .  S
O971        C981   1.262       .  A
O971       Al973   1.885       .  S
O972        C985   1.260       .  A
O972       Al982   1.893       .  S
Al973       O986   1.937       .  S
Al973       O983   1.967       .  S
Al973       O978   1.775       .  S
O974        C981   1.268       .  A
O974       Al982   1.936       .  S
O975        C984   1.271       .  A
O975       Al982   1.948       .  S
O976       Al982   1.888       .  S
O977        C984   1.253       .  A
O978       Al982   1.766       .  S
O979        C980   1.269       .  A
C980       C1013   1.468       .  S
C981       C1210   1.471       .  S
C984       C1009   1.463       .  S
C985        O986   1.268       .  A
C985       C1018   1.478       .  S
O987       C1002   1.259       .  A
O987       Al995   1.882       .  S
C988        O998   1.261       .  A
C988        O989   1.257       .  A
C988       C1057   1.471       .  S
O989       Al991   1.897       .  S
O990        C992   1.259       .  A
Al991       O999   1.876       .  S
Al991      O1001   1.917       .  S
Al991      O1000   1.781       .  S
C992       O1005   1.269       .  A
C992       C1014   1.463       .  S
O994       C1007   1.262       .  A
O994      Al1004   1.917       .  S
Al995      O1008   1.929       .  S
Al995      O1000   1.772       .  S
O996       C1003   1.266       .  A
O996      Al1004   1.931       .  S
O997       C1006   1.272       .  A
O997      Al1004   1.927       .  S
O998      Al1004   1.917       .  S
O999       C1006   1.258       .  A
O1000     Al1004   1.786       .  S
O1001      C1002   1.260       .  A
C1003      C1034   1.470   1_545  S
C1006      C1010   1.468       .  S
C1007      O1008   1.265       .  A
C1007      C1045   1.487       .  S
C1009      C1010   1.334       .  D
C1009      H1011   1.088       .  S
C1010      H1012   1.087       .  S
C1013      C1014   1.337       .  D
C1013      H1015   1.089       .  S
C1014      H1016   1.088       .  S
C1017      C1018   1.342       .  D
C1017      H1019   1.087       .  S
C1018      H1020   1.086       .  S
C1021      C1022   1.347       .  D
C1021      H1023   1.088       .  S
C1022      H1024   1.086       .  S
C1025      H1027   1.087       .  S
C1026      H1028   1.087   1_556  S
C1029      C1030   1.347       .  D
C1029      H1031   1.085       .  S
C1030      H1032   1.088       .  S
C1037      C1038   1.336       .  D
C1037      H1039   1.086       .  S
C1038      H1040   1.086       .  S
C1041      C1042   1.341       .  D
C1041      H1043   1.086       .  S
C1042      H1044   1.086       .  S
C1045      C1046   1.352   1_545  D
C1045      H1047   1.088   1_545  S
C1046      H1048   1.086       .  S
C1049      C1050   1.347       .  D
C1049      H1051   1.086       .  S
C1050      H1052   1.085       .  S
C1053      C1054   1.335       .  D
C1053      H1055   1.087       .  S
C1054      H1056   1.088       .  S
C1057      C1058   1.342       .  D
C1057      H1059   1.086       .  S
C1058      H1060   1.088   1_556  S
C1061      C1062   1.345       .  D
C1061      H1063   1.087       .  S
C1062      H1064   1.087       .  S
C1065      C1066   1.349       .  D
C1065      H1067   1.086       .  S
C1066      H1068   1.086       .  S
C1069      C1070   1.345       .  D
C1069      H1071   1.087       .  S
C1070      H1072   1.088       .  S
C1073      H1075   1.087       .  S
C1074      H1076   1.086       .  S
C1077      C1078   1.350       .  D
C1077      H1079   1.087       .  S
C1078      H1080   1.086       .  S
C1081      C1082   1.342       .  D
C1081      H1083   1.088       .  S
C1082      H1084   1.086       .  S
C1085      C1086   1.351       .  D
C1085      H1087   1.086       .  S
C1086      H1088   1.087       .  S
C1089      C1090   1.338       .  D
C1089      H1091   1.089       .  S
C1090      H1092   1.088       .  S
C1093      C1094   1.339       .  D
C1093      H1095   1.088       .  S
C1094      H1096   1.088       .  S
C1097      C1098   1.339       .  D
C1097      H1099   1.087       .  S
C1098      H1100   1.086   1_655  S
C1101      C1102   1.340       .  D
C1101      H1103   1.086       .  S
C1105      C1106   1.345       .  D
C1105      H1107   1.085       .  S
C1106      H1108   1.086       .  S
C1109      C1110   1.339       .  D
C1109      H1111   1.087       .  S
C1110      H1112   1.087       .  S
C1113      C1114   1.341       .  D
C1113      H1115   1.087       .  S
C1114      H1116   1.086       .  S
C1117      C1118   1.342       .  D
C1117      H1119   1.086       .  S
C1118      H1120   1.088       .  S
C1121      C1122   1.354       .  D
C1121      H1123   1.087       .  S
C1122      H1124   1.087       .  S
C1125      C1126   1.347       .  D
C1125      H1127   1.087       .  S
C1126      H1128   1.086       .  S
C1129      C1130   1.339       .  D
C1129      H1131   1.088       .  S
C1130      H1132   1.087       .  S
C1133      C1134   1.345       .  D
C1133      H1135   1.088       .  S
C1134      H1136   1.086       .  S
C1137      C1138   1.338       .  D
C1137      H1139   1.086       .  S
C1138      H1140   1.087       .  S
C1141      C1142   1.344       .  D
C1141      H1143   1.087       .  S
C1142      H1144   1.085       .  S
C1145      H1147   1.087       .  S
C1146      H1148   1.085   1_556  S
C1149      C1150   1.344       .  D
C1149      H1151   1.087       .  S
C1150      H1152   1.085       .  S
C1153      C1154   1.333       .  D
C1153      H1155   1.086       .  S
C1154      H1156   1.088       .  S
C1157      C1158   1.342       .  D
C1157      H1159   1.087       .  S
C1158      H1160   1.087       .  S
C1161      H1163   1.086       .  S
C1162      H1164   1.086       .  S
C1165      C1166   1.342       .  D
C1165      H1167   1.088       .  S
C1166      H1168   1.086       .  S
C1169      C1170   1.340       .  D
C1169      H1171   1.087       .  S
C1170      H1172   1.087       .  S
C1173      C1174   1.347       .  D
C1173      H1175   1.087       .  S
C1174      H1176   1.087       .  S
C1177      C1178   1.341       .  D
C1177      H1179   1.088       .  S
C1178      H1180   1.087       .  S
C1181      C1182   1.336       .  D
C1181      H1183   1.087       .  S
C1182      H1184   1.087       .  S
C1185      C1186   1.340       .  D
C1185      H1187   1.087       .  S
C1186      H1188   1.087       .  S
C1189      C1190   1.339       .  D
C1189      H1191   1.086       .  S
C1190      H1192   1.087       .  S
C1193      C1194   1.337       .  D
C1193      H1195   1.087       .  S
C1194      H1196   1.087       .  S
C1197      C1198   1.345       .  D
C1197      H1199   1.088       .  S
C1198      H1200   1.087       .  S
C1201      C1202   1.341       .  D
C1201      H1203   1.086       .  S
C1202      H1204   1.086       .  S
C1205      C1206   1.345       .  D
C1205      H1207   1.088       .  S
C1209      C1210   1.342       .  D
C1209      H1211   1.086       .  S
C1210      H1212   1.087       .  S
C1213      C1214   1.337       .  D
C1213      H1215   1.088       .  S
C1214      H1216   1.087       .  S
C1217      H1219   1.088       .  S
C1218      H1220   1.088   1_556  S
C1221      C1222   1.343       .  D
C1221      H1223   1.086       .  S
C1222      H1224   1.087       .  S
