geometry optimzed in LAMMPS
_audit_creation_date              2020-12-01 
_audit_creation_method            'lammps2cif' 
_symmetry_space_group_name_H-M    'P1' 
_symmetry_Int_Tables_number       1 
_symmetry_cell_setting            triclinic 
loop_ 
_symmetry_equiv_pos_as_xyz 
  x,y,z 
_cell_length_a                    53.30411277 
_cell_length_b                    53.329666079254515 
_cell_length_c                    59.038810669480874 
_cell_angle_alpha                 89.90003761233037 
_cell_angle_beta                  89.94269529290365 
_cell_angle_gamma                 89.97620438557793 
loop_ 
_atom_site_label 
_atom_site_type_symbol 
_atom_site_fract_x 
_atom_site_fract_y 
_atom_site_fract_z 
_atom_site_charge 
Fe1        Fe  0.38557336  0.70174853  0.12016850     1.65800
Fe2        Fe  0.43311364  0.67732762  0.15150552     1.73200
Fe3        Fe  0.44412320  0.72980228  0.11949583     1.54400
O4          O  0.43406869  0.72376131  0.08601500    -0.82000
O5          O  0.45331131  0.70246148  0.17053946    -0.80300
O6          O  0.39541223  0.70767636  0.08666585    -0.84500
O7          O  0.38058232  0.73927901  0.12579295    -0.79300
O8          O  0.47416554  0.70481698  0.11470000    -0.81100
O9          O  0.40418097  0.68363489  0.17347074    -0.83800
C10         C  0.39380683  0.75899603  0.12592121     0.96900
C11         C  0.41462387  0.71550298  0.07599705     1.04400
O12         O  0.42095483  0.70301558  0.13030475    -1.12800
O13         O  0.41457139  0.64776785  0.13606880    -0.75200
O14         O  0.38547514  0.66366982  0.11339093    -0.78700
O15         O  0.41746452  0.75867275  0.12286005    -0.79400
C16         C  0.39699878  0.64505771  0.12179966     0.95800
O17         O  0.37145834  0.69578572  0.15264805    -0.77400
O18         O  0.46350371  0.66907564  0.13179218    -0.82600
C19         C  0.46030891  0.72510560  0.16944014     0.98500
C20         C  0.47846752  0.68195392  0.11981603     1.04400
O21         O  0.45707304  0.73863110  0.15192054    -0.78200
C22         C  0.38141816  0.69001397  0.17150529     1.02700
Fe23       Fe  0.38137795  0.69340061  0.86374312     1.65800
Fe24       Fe  0.42709434  0.66753195  0.83153762     1.73200
Fe25       Fe  0.44001006  0.71971569  0.86199434     1.54400
O26         O  0.41318153  0.74860210  0.86130179    -0.82000
O27         O  0.45696674  0.65753911  0.85149168    -0.80300
O28         O  0.37651903  0.73009110  0.85430498    -0.84500
O29         O  0.39212446  0.70316129  0.89634759    -0.79300
O30         O  0.44983136  0.72903038  0.82908658    -0.81100
O31         O  0.40627623  0.63949712  0.84713790    -0.83800
C32         C  0.41273239  0.70788183  0.90633848     0.96900
C33         C  0.38998361  0.74955335  0.85617338     1.04400
O34         O  0.41618564  0.69353026  0.85253169    -1.12800
O35         O  0.39845985  0.67595621  0.80984871    -0.75200
O36         O  0.36595536  0.68327252  0.83272228    -0.78700
O37         O  0.43289198  0.71244423  0.89562681    -0.79400
C38         C  0.37523808  0.67933054  0.81322955     0.95800
O39         O  0.38232873  0.65641762  0.87390842    -0.77400
O40         O  0.44944126  0.69143655  0.81265075    -0.82600
C41         C  0.47361433  0.67130450  0.86046744     0.98500
C42         C  0.45512139  0.71453635  0.81273360     1.04400
O43         O  0.47021517  0.69468427  0.86382540    -0.78200
C44         C  0.39111468  0.63747675  0.86368385     1.02700
Fe45       Fe  0.70347855  0.61570887  0.12129210     1.65800
Fe46       Fe  0.67918382  0.56913666  0.15338022     1.73200
Fe47       Fe  0.73184153  0.55799606  0.12244975     1.54400
O48         O  0.72513138  0.56587677  0.08881597    -0.82000
O49         O  0.70346385  0.54625751  0.17139483    -0.80300
O50         O  0.71242910  0.60571926  0.08856459    -0.84500
O51         O  0.74017629  0.62163936  0.12927861    -0.79300
O52         O  0.70695295  0.52735592  0.11986247    -0.81100
O53         O  0.68767843  0.59730900  0.17562150    -0.83800
C54         C  0.76022951  0.60897981  0.12815610     0.96900
C55         C  0.71905116  0.58583046  0.07838564     1.04400
O56         O  0.70487782  0.58092649  0.13224206    -1.12800
O57         O  0.65006494  0.59000668  0.13910429    -0.75200
O58         O  0.66637901  0.61407523  0.11216784    -0.78700
O59         O  0.76033702  0.58551961  0.12392048    -0.79400
C60         C  0.64767482  0.60545296  0.12282646     0.95800
O61         O  0.69418245  0.63011457  0.15278446    -0.77400
O62         O  0.66960631  0.54003083  0.13259760    -0.82600
C63         C  0.72672569  0.54126635  0.17134401     0.98500
C64         C  0.68350632  0.52372451  0.12323742     1.04400
O65         O  0.74119415  0.54760603  0.15525283    -0.78200
C66         C  0.69077315  0.62059056  0.17227915     1.02700
Fe67       Fe  0.70343082  0.61430270  0.86541158     1.65800
Fe68       Fe  0.67887304  0.56608447  0.83503791     1.73200
Fe69       Fe  0.73207630  0.55620992  0.86574516     1.54400
O70         O  0.76049348  0.58324051  0.86177595    -0.82000
O71         O  0.67034620  0.53642317  0.85596890    -0.80300
O72         O  0.74064230  0.61981489  0.85824952    -0.84500
O73         O  0.71125484  0.60515508  0.89870202    -0.79300
O74         O  0.74045648  0.54350014  0.83340631    -0.81100
O75         O  0.64989057  0.58571817  0.84989676    -0.83800
C76         C  0.71967111  0.58606113  0.90914798     0.96900
C77         C  0.76053529  0.60682135  0.85822197     1.04400
O78         O  0.70479525  0.57885822  0.85556749    -1.12800
O79         O  0.68575421  0.59433695  0.81237404    -0.75200
O80         O  0.69585720  0.62775602  0.83316917    -0.78700
O81         O  0.72695100  0.56634282  0.89903913    -0.79400
C82         C  0.69114139  0.61737979  0.81430414     0.95800
O83         O  0.66560795  0.61392321  0.87351735    -0.77400
O84         O  0.70333568  0.54474120  0.81627174    -0.82600
C85         C  0.68409177  0.52152968  0.86726952     0.98500
C86         C  0.72634994  0.53895675  0.81663150     1.04400
O87         O  0.70727429  0.52601406  0.87106851    -0.78200
C88         C  0.64708774  0.60292395  0.86445253     1.02700
Fe89       Fe  0.62197770  0.29413288  0.12440051     1.65800
Fe90       Fe  0.57565922  0.32096944  0.15573124     1.73200
Fe91       Fe  0.56266745  0.26779397  0.12527859     1.54400
O92         O  0.57378953  0.27116434  0.09170701    -0.82000
O93         O  0.55832738  0.29618837  0.17690904    -0.80300
O94         O  0.61100534  0.29048223  0.09109339    -0.84500
O95         O  0.62543413  0.25607860  0.12826686    -0.79300
O96         O  0.53402153  0.29315824  0.11853021    -0.81100
O97         O  0.60667197  0.31705571  0.17612951    -0.83800
C98         C  0.61147130  0.23718198  0.13132340     0.96900
C99         C  0.59231020  0.28068206  0.08110675     1.04400
O100        O  0.58671016  0.29428991  0.13505744    -1.12800
O101        O  0.59198327  0.34963762  0.13754818    -0.75200
O102        O  0.62439393  0.33262127  0.11962590    -0.78700
O103        O  0.58770245  0.23843553  0.13094426    -0.79400
C104        C  0.61166536  0.35160352  0.12563525     0.95800
O105        O  0.63667525  0.29744569  0.15663297    -0.77400
O106        O  0.54297383  0.32762060  0.13819436    -0.82600
C107        C  0.54874451  0.27454993  0.17579070     0.98500
C108        C  0.52880641  0.31525496  0.12505988     1.04400
O109        O  0.54848953  0.26158860  0.15774738    -0.78200
C110        C  0.62826096  0.30721180  0.17466549     1.02700
Fe111      Fe  0.62460834  0.29385081  0.86909109     1.65800
Fe112      Fe  0.57910374  0.31907186  0.83590758     1.73200
Fe113      Fe  0.56628823  0.26637165  0.86670302     1.54400
O114        O  0.59349586  0.23785857  0.86655659    -0.82000
O115        O  0.54783632  0.32741740  0.85442955    -0.80300
O116        O  0.63046027  0.25666691  0.86178128    -0.84500
O117        O  0.61288265  0.28558701  0.90163357    -0.79300
O118        O  0.55704693  0.25702333  0.83355696    -0.81100
O119        O  0.59725607  0.34829883  0.85258446    -0.83800
C120        C  0.59255857  0.27942024  0.91147080     0.96900
C121        C  0.61709081  0.23710890  0.86322692     1.04400
O122        O  0.58999868  0.29306775  0.85726605    -1.12800
O123        O  0.60916986  0.31277682  0.81513722    -0.75200
O124        O  0.64077335  0.30225601  0.83800523    -0.78700
O125        O  0.57283803  0.27343950  0.90064051    -0.79400
C126        C  0.63204580  0.30770083  0.81862136     0.95800
O127        O  0.62339080  0.33136785  0.87763437    -0.77400
O128        O  0.55923605  0.29407091  0.81600713    -0.82600
C129        C  0.53142459  0.31367799  0.86376544     0.98500
C130        C  0.55313314  0.27106692  0.81649158     1.04400
O131        O  0.53535450  0.29060933  0.86820285    -0.78200
C132        C  0.61321993  0.35032458  0.86845020     1.02700
Fe133      Fe  0.30350931  0.38067880  0.12179083     1.65800
Fe134      Fe  0.32961915  0.42839476  0.15066569     1.73200
Fe135      Fe  0.27674025  0.43892887  0.12074919     1.54400
O136        O  0.28360621  0.43009808  0.08743011    -0.82000
O137        O  0.30642863  0.45315160  0.16762642    -0.80300
O138        O  0.29258407  0.38921006  0.08890275    -0.84500
O139        O  0.26721164  0.37591356  0.13219256    -0.79300
O140        O  0.30187634  0.46967114  0.11753847    -0.81100
O141        O  0.32093643  0.40199187  0.17463707    -0.83800
C142        C  0.24745853  0.38862173  0.12896928     0.96900
C143        C  0.28774370  0.40916884  0.07785743     1.04400
O144        O  0.30326939  0.41598099  0.13089735    -1.12800
O145        O  0.35737022  0.40574905  0.13694089    -0.75200
O146        O  0.34006142  0.38150814  0.11070547    -0.78700
O147        O  0.24805864  0.41150753  0.12254222    -0.79400
C148        C  0.35911223  0.38999808  0.12091041     0.95800
O149        O  0.31489668  0.36782019  0.15356449    -0.77400
O150        O  0.33950064  0.45566098  0.12798700    -0.82600
C151        C  0.28303892  0.45736375  0.16851486     0.98500
C152        C  0.32562563  0.47263956  0.11964312     1.04400
O153        O  0.26785980  0.44956882  0.15355593    -0.78200
C154        C  0.31858822  0.37845092  0.17255807     1.02700
Fe155      Fe  0.30238931  0.37387688  0.86547105     1.65800
Fe156      Fe  0.32516706  0.42065013  0.83205999     1.73200
Fe157      Fe  0.27261761  0.43145488  0.86400816     1.54400
O158        O  0.24465121  0.40430695  0.86003014    -0.82000
O159        O  0.33253647  0.45203398  0.85092354    -0.80300
O160        O  0.26497685  0.36784806  0.86122866    -0.84500
O161        O  0.29775773  0.38494515  0.89860022    -0.79300
O162        O  0.26386764  0.44416980  0.83154989    -0.81100
O163        O  0.35547496  0.40315245  0.84744116    -0.83800
C164        C  0.28797247  0.40370474  0.90843212     0.96900
C165        C  0.24508841  0.38050011  0.85894435     1.04400
O166        O  0.30006554  0.40870215  0.85393366    -1.12800
O167        O  0.31931827  0.39057302  0.81124100    -0.75200
O168        O  0.30732992  0.35889666  0.83360201    -0.78700
O169        O  0.27796084  0.42178285  0.89763828    -0.79400
C170        C  0.31310463  0.36790746  0.81440189     0.95800
O171        O  0.34047602  0.37415066  0.87075104    -0.77400
O172        O  0.29953325  0.43953418  0.81245312    -0.82600
C173        C  0.31962084  0.46658534  0.86334548     0.98500
C174        C  0.27696028  0.44667570  0.81372013     1.04400
O175        O  0.29705033  0.46169930  0.86903221    -0.78200
C176        C  0.35867328  0.38540522  0.86148191     1.02700
Fe177      Fe  0.70686492  0.37744029  0.36705967     1.65800
Fe178      Fe  0.68107898  0.42276363  0.33428001     1.73200
Fe179      Fe  0.73336411  0.43636818  0.36529626     1.54400
O180        O  0.72773177  0.42834715  0.39943797    -0.82000
O181        O  0.70525033  0.44328140  0.31446890    -0.80300
O182        O  0.71590145  0.38826981  0.39971349    -0.84500
O183        O  0.74361012  0.37262328  0.35860507    -0.79300
O184        O  0.70776974  0.46634575  0.36841663    -0.81100
O185        O  0.68850442  0.39345652  0.31302233    -0.83800
C186        C  0.76308661  0.38614263  0.35923967     0.96900
C187        C  0.72226090  0.40822468  0.40997618     1.04400
O188        O  0.70709178  0.41227953  0.35570562    -1.12800
O189        O  0.65267822  0.40323446  0.35054340    -0.75200
O190        O  0.66967814  0.37805156  0.37638018    -0.78700
O191        O  0.76242382  0.40964134  0.36324357    -0.79400
C192        C  0.65074648  0.38744146  0.36657452     0.95800
O193        O  0.69778139  0.36159645  0.33595699    -0.77400
O194        O  0.67174026  0.45350577  0.35321031    -0.82600
C195        C  0.72805744  0.44986757  0.31478120     0.98500
C196        C  0.68462743  0.46978295  0.36365615     1.04400
O197        O  0.74193708  0.44716110  0.33212855    -0.78200
C198        C  0.69293012  0.37047727  0.31648591     1.02700
Fe199      Fe  0.70516814  0.37180448  0.62346429     1.65800
Fe200      Fe  0.68056578  0.41761150  0.65690207     1.73200
Fe201      Fe  0.73249224  0.43053256  0.62485252     1.54400
O202        O  0.76169785  0.40449481  0.62763609    -0.82000
O203        O  0.67145358  0.44876632  0.63822961    -0.80300
O204        O  0.74290293  0.36721908  0.62837510    -0.84500
O205        O  0.71018968  0.38339399  0.59007775    -0.79300
O206        O  0.74128889  0.44248073  0.65737642    -0.81100
O207        O  0.65109309  0.39887128  0.64153383    -0.83800
C208        C  0.71837126  0.40304395  0.58022473     0.96900
C209        C  0.76234174  0.38076948  0.62960357     1.04400
O210        O  0.70605279  0.40667826  0.63495257    -1.12800
O211        O  0.68807447  0.38792786  0.67772247    -0.75200
O212        O  0.70031983  0.35627666  0.65559409    -0.78700
O213        O  0.72674504  0.42180667  0.59111375    -0.79400
C214        C  0.69488898  0.36540270  0.67487538     0.95800
O215        O  0.66688057  0.37099297  0.61758804    -0.77400
O216        O  0.70542959  0.43782866  0.67625210    -0.82600
C217        C  0.68431803  0.46421531  0.62667133     0.98500
C218        C  0.72789845  0.44532460  0.67496245     1.04400
O219        O  0.70704858  0.46002855  0.62111134    -0.78200
C220        C  0.64831364  0.38163233  0.62696832     1.02700
Fe221      Fe  0.62336337  0.69790429  0.36501202     1.65800
Fe222      Fe  0.57586471  0.67429605  0.33369904     1.73200
Fe223      Fe  0.56595049  0.72778641  0.36377210     1.54400
O224        O  0.57469988  0.72262038  0.39764915    -0.82000
O225        O  0.55398850  0.69841556  0.31486064    -0.80300
O226        O  0.61322987  0.70625786  0.39799953    -0.84500
O227        O  0.62987031  0.73482914  0.35711954    -0.79300
O228        O  0.53534435  0.70351597  0.36853781    -0.81100
O229        O  0.60408102  0.68142794  0.31128318    -0.83800
C230        C  0.61721399  0.75494327  0.35654858     0.96900
C231        C  0.59387856  0.71453521  0.40817442     1.04400
O232        O  0.58839609  0.70006274  0.35430705    -1.12800
O233        O  0.59571478  0.64501983  0.34823960    -0.75200
O234        O  0.62179379  0.66032279  0.37388560    -0.78700
O235        O  0.59363862  0.75545855  0.36009109    -0.79400
C236        C  0.61181957  0.64190721  0.36378442     0.95800
O237        O  0.63739929  0.68912335  0.33313504    -0.77400
O238        O  0.54677269  0.66617442  0.35491739    -0.82600
C239        C  0.54903369  0.72160762  0.31453659     0.98500
C240        C  0.53145642  0.68012063  0.36549616     1.04400
O241        O  0.55444045  0.73609240  0.33085981    -0.78200
C242        C  0.62735045  0.68525409  0.31392743     1.02700
Fe243      Fe  0.62640048  0.69386850  0.62006156     1.65800
Fe244      Fe  0.58266498  0.66978040  0.65579989     1.73200
Fe245      Fe  0.56727298  0.72045436  0.62312656     1.54400
O246        O  0.59351519  0.74983096  0.62449702    -0.82000
O247        O  0.55076231  0.65969185  0.63879132    -0.80300
O248        O  0.63112188  0.73139241  0.62615633    -0.84500
O249        O  0.61392475  0.70059874  0.58750591    -0.79300
O250        O  0.55642611  0.72964200  0.65592534    -0.81100
O251        O  0.60117285  0.64071157  0.63992518    -0.83800
C252        C  0.59387999  0.70798830  0.57796941     0.96900
C253        C  0.61729071  0.75073256  0.62671560     1.04400
O254        O  0.59202647  0.69469355  0.63283554    -1.12800
O255        O  0.61315341  0.67794191  0.67527765    -0.75200
O256        O  0.64382344  0.68701358  0.65093631    -0.78700
O257        O  0.57463478  0.71477625  0.58909164    -0.79400
C258        C  0.63587845  0.68257673  0.67080647     0.95800
O259        O  0.62597608  0.65586532  0.61291834    -0.77400
O260        O  0.56309511  0.69461864  0.67553551    -0.82600
C261        C  0.53439912  0.67164814  0.62750807     0.98500
C262        C  0.55483564  0.71676606  0.67396713     1.04400
O263        O  0.53781388  0.69424720  0.62092203    -0.78200
C264        C  0.61652678  0.63758952  0.62374112     1.02700
Fe265      Fe  0.30516453  0.62033450  0.36595682     1.65800
Fe266      Fe  0.33162545  0.57559284  0.33279093     1.73200
Fe267      Fe  0.27745776  0.56196719  0.36141911     1.54400
O268        O  0.28172242  0.56864275  0.39559319    -0.82000
O269        O  0.30752235  0.55736553  0.31124659    -0.80300
O270        O  0.29580633  0.60792569  0.39800587    -0.84500
O271        O  0.26840328  0.62610961  0.35769536    -0.79300
O272        O  0.30206246  0.53134122  0.36490980    -0.81100
O273        O  0.32698442  0.60647490  0.31271121    -0.83800
C274        C  0.24865798  0.61297290  0.35670351     0.96900
C275        C  0.28809960  0.58771493  0.40707165     1.04400
O276        O  0.30471779  0.58592553  0.35345800    -1.12800
O277        O  0.35984599  0.59271599  0.35115114    -0.75200
O278        O  0.34231296  0.61914810  0.37555287    -0.78700
O279        O  0.24885677  0.58918408  0.35901473    -0.79400
C280        C  0.36143692  0.60871410  0.36697641     0.95800
O281        O  0.31458449  0.63744042  0.33542242    -0.77400
O282        O  0.33872966  0.54334465  0.35041963    -0.82600
C283        C  0.28480585  0.55039434  0.31095152     0.98500
C284        C  0.32514254  0.52728835  0.36044053     1.04400
O285        O  0.27038020  0.55220767  0.32800084    -0.78200
C286        C  0.32141641  0.62919296  0.31623407     1.02700
Fe287      Fe  0.30772501  0.60699643  0.62023782     1.65800
Fe288      Fe  0.32810383  0.55881413  0.65249768     1.73200
Fe289      Fe  0.27653649  0.55062640  0.61946850     1.54400
O290        O  0.24932050  0.57896932  0.62160582    -0.82000
O291        O  0.33754756  0.53009607  0.63110434    -0.80300
O292        O  0.27079030  0.61438951  0.62669163    -0.84500
O293        O  0.30020532  0.59814422  0.58689942    -0.79300
O294        O  0.26565115  0.53924599  0.65172226    -0.81100
O295        O  0.35867129  0.57912963  0.64052168    -0.83800
C296        C  0.29205608  0.57916939  0.57620525     0.96900
C297        C  0.25032523  0.60237866  0.62576490     1.04400
O298        O  0.30408551  0.57212222  0.63053046    -1.12800
O299        O  0.31921016  0.58661217  0.67500684    -0.75200
O300        O  0.31543879  0.62011301  0.65248667    -0.78700
O301        O  0.28413332  0.55954200  0.58611901    -0.79400
C302        C  0.31700478  0.61005593  0.67197046     0.95800
O303        O  0.34552678  0.60408888  0.61296090    -0.77400
O304        O  0.30244373  0.53650299  0.66918030    -0.82600
C305        C  0.32362090  0.51513706  0.62005508     0.98500
C306        C  0.27903749  0.53268906  0.66845855     1.04400
O307        O  0.30047618  0.51964328  0.61612240    -0.78200
C308        C  0.36303238  0.59491437  0.62489180     1.02700
Fe309      Fe  0.38621459  0.30021950  0.36725629     1.65800
Fe310      Fe  0.43503337  0.32360000  0.33791967     1.73200
Fe311      Fe  0.44310894  0.27092660  0.36833245     1.54400
O312        O  0.43493826  0.27869631  0.40148135    -0.82000
O313        O  0.45913101  0.29925031  0.32166204    -0.80300
O314        O  0.39430458  0.28893749  0.40051315    -0.84500
O315        O  0.37993476  0.26395248  0.35706290    -0.79300
O316        O  0.47481469  0.29435210  0.37082951    -0.81100
O317        O  0.40868459  0.31546161  0.31383616    -0.83800
C318        C  0.39210151  0.24388184  0.36048635     0.96900
C319        C  0.41421212  0.28308278  0.41134858     1.04400
O320        O  0.42137067  0.29825459  0.35804669    -1.12800
O321        O  0.41325428  0.35239660  0.35069324    -0.75200
O322        O  0.38875658  0.33710767  0.37780085    -0.78700
O323        O  0.41476935  0.24378069  0.36724843    -0.79400
C324        C  0.39781375  0.35547408  0.36682719     0.95800
O325        O  0.37420247  0.31176949  0.33511207    -0.77400
O326        O  0.46208721  0.33259331  0.36094289    -0.82600
C327        C  0.46133633  0.27563371  0.32062619     0.98500
C328        C  0.47853494  0.31794979  0.36906955     1.04400
O329        O  0.45261191  0.26104761  0.33563831    -0.78200
C330        C  0.38503858  0.31438927  0.31597694     1.02700
Fe331      Fe  0.38221385  0.28686943  0.62356400     1.65800
Fe332      Fe  0.42782148  0.31468813  0.65524582     1.73200
Fe333      Fe  0.44187694  0.26150044  0.62550280     1.54400
O334        O  0.41609776  0.23193508  0.62913919    -0.82000
O335        O  0.45978289  0.32278458  0.63730671    -0.80300
O336        O  0.37824193  0.24959453  0.63117037    -0.84500
O337        O  0.39324934  0.27915769  0.59085977    -0.79300
O338        O  0.45399075  0.25472518  0.65853492    -0.81100
O339        O  0.40975827  0.34246182  0.63706292    -0.83800
C340        C  0.41305599  0.27195822  0.58083095     0.96900
C341        C  0.39242568  0.23058218  0.63189881     1.04400
O342        O  0.41735271  0.28768330  0.63469410    -1.12800
O343        O  0.39752770  0.30938913  0.67586807    -0.75200
O344        O  0.36636280  0.29439302  0.65474689    -0.78700
O345        O  0.43284776  0.26564902  0.59147519    -0.79400
C346        C  0.37511721  0.30213266  0.67338604     0.95800
O347        O  0.38124997  0.32439345  0.61496703    -0.77400
O348        O  0.44706227  0.29084354  0.67649125    -0.82600
C349        C  0.47551882  0.30988268  0.62621063     0.98500
C350        C  0.45554458  0.26865202  0.67595172     1.04400
O351        O  0.47137420  0.28709717  0.62084233    -0.78200
C352        C  0.39235878  0.34369058  0.62244720     1.02700
Fe353      Fe  0.88275410  0.19175327  0.62325760     1.65800
Fe354      Fe  0.92786720  0.17003157  0.65840999     1.73200
Fe355      Fe  0.94097850  0.21987559  0.62425342     1.54400
O356        O  0.93281702  0.21283303  0.59084412    -0.82000
O357        O  0.94949236  0.19517100  0.67602461    -0.80300
O358        O  0.89357485  0.19867793  0.59018373    -0.84500
O359        O  0.87706187  0.22910456  0.62952551    -0.79300
O360        O  0.97062461  0.19409281  0.62179839    -0.81100
O361        O  0.89844465  0.17974101  0.67901467    -0.83800
C362        C  0.89041743  0.24880109  0.62925329     0.96900
C363        C  0.91343359  0.20580441  0.58018874     1.04400
O364        O  0.91729174  0.19392644  0.63515385    -1.12800
O365        O  0.90804343  0.14033557  0.64484993    -0.75200
O366        O  0.88481014  0.15391935  0.61617036    -0.78700
O367        O  0.91403741  0.24849494  0.62583248    -0.79400
C368        C  0.89355630  0.13627677  0.62821761     0.95800
O369        O  0.86677889  0.18424926  0.65469363    -0.77400
O370        O  0.95835122  0.15916464  0.63962014    -0.82600
C371        C  0.95684721  0.21757145  0.67387557     0.98500
C372        C  0.97423943  0.17137277  0.62791933     1.04400
O373        O  0.95280283  0.23049671  0.65624364    -0.78200
C374        C  0.87528301  0.18211802  0.67469295     1.02700
Fe375      Fe  0.88391192  0.19882342  0.36795197     1.65800
Fe376      Fe  0.93057165  0.17195317  0.33728591     1.73200
Fe377      Fe  0.94252597  0.22554201  0.36672185     1.54400
O378        O  0.91591666  0.25442102  0.36497965    -0.82000
O379        O  0.96093461  0.16359554  0.35736424    -0.80300
O380        O  0.87924660  0.23556701  0.35936346    -0.84500
O381        O  0.89456066  0.20736151  0.40066753    -0.79300
O382        O  0.95244423  0.23376607  0.33364366    -0.81100
O383        O  0.91096239  0.14389203  0.35400735    -0.83800
C384        C  0.91472418  0.21320964  0.41088152     0.96900
C385        C  0.89262472  0.25507263  0.36040786     1.04400
O386        O  0.91901029  0.19872888  0.35741854    -1.12800
O387        O  0.90160273  0.17822150  0.31514000    -0.75200
O388        O  0.86916297  0.19014889  0.33647501    -0.78700
O389        O  0.93471858  0.21933953  0.40049868    -0.79400
C390        C  0.87873049  0.18412298  0.31756376     0.95800
O391        O  0.88364726  0.16173697  0.37743070    -0.77400
O392        O  0.95151726  0.19601710  0.31737368    -0.82600
C393        C  0.97706175  0.17780290  0.36651644     0.98500
C394        C  0.95674865  0.21922550  0.31708556     1.04400
O395        O  0.97306377  0.20109910  0.36965757    -0.78200
C396        C  0.89400632  0.14250328  0.36908643     1.02700
Fe397      Fe  0.12343479  0.78925743  0.62411242     1.65800
Fe398      Fe  0.07601501  0.81303007  0.65519833     1.73200
Fe399      Fe  0.06660246  0.75933909  0.62611092     1.54400
O400        O  0.07278718  0.76654565  0.59215374    -0.82000
O401        O  0.05361561  0.78861305  0.67339087    -0.80300
O402        O  0.11285881  0.77894315  0.59139893    -0.84500
O403        O  0.13035246  0.75298547  0.63336469    -0.79300
O404        O  0.03456176  0.78242864  0.62478363    -0.81100
O405        O  0.10409127  0.80590522  0.67800550    -0.83800
C406        C  0.11835359  0.73264695  0.63142262     0.96900
C407        C  0.09260843  0.77253765  0.58139847     1.04400
O408        O  0.08873655  0.78723656  0.63493899    -1.12800
O409        O  0.09653471  0.84200397  0.64065553    -0.75200
O410        O  0.12129258  0.82629108  0.61402214    -0.78700
O411        O  0.09511662  0.73204121  0.62645282    -0.79400
C412        C  0.11220817  0.84482195  0.62462714     0.95800
O413        O  0.13749571  0.79989641  0.65573114    -0.77400
O414        O  0.04690806  0.82109117  0.63368885    -0.82600
C415        C  0.05093164  0.76504099  0.67472872     0.98500
C416        C  0.03034280  0.80593323  0.62655855     1.04400
O417        O  0.05863619  0.75014372  0.65948870    -0.78200
C418        C  0.12754519  0.80347901  0.67510264     1.02700
Fe419      Fe  0.12406952  0.79877341  0.36964241     1.65800
Fe420      Fe  0.07897415  0.82521000  0.33659185     1.73200
Fe421      Fe  0.06537579  0.77122266  0.36573219     1.54400
O422        O  0.09181644  0.74224961  0.36170138    -0.82000
O423        O  0.04662324  0.83261942  0.35430927    -0.80300
O424        O  0.12888745  0.76135859  0.36358632    -0.84500
O425        O  0.11146044  0.79202127  0.40227603    -0.79300
O426        O  0.05410103  0.76463116  0.33239042    -0.81100
O427        O  0.09616554  0.85367174  0.35430885    -0.83800
C428        C  0.09205670  0.78250080  0.41149841     0.96900
C429        C  0.11568901  0.74190039  0.36078667     1.04400
O430        O  0.08942182  0.79841525  0.35746819    -1.12800
O431        O  0.10984151  0.82000843  0.31652715    -0.75200
O432        O  0.14066477  0.80498606  0.33818120    -0.78700
O433        O  0.07352697  0.77440758  0.40005566    -0.79400
C434        C  0.13211957  0.81229349  0.31920435     0.95800
O435        O  0.12483619  0.83678186  0.37689259    -0.77400
O436        O  0.06085442  0.80112039  0.31517279    -0.82600
C437        C  0.03128713  0.81938177  0.36562421     0.98500
C438        C  0.05319176  0.77867639  0.31499854     1.04400
O439        O  0.03565305  0.79648047  0.37058763    -0.78200
C440        C  0.11369013  0.85572950  0.36866911     1.02700
Fe441      Fe  0.80045724  0.87105374  0.62479342     1.65800
Fe442      Fe  0.82982335  0.91445046  0.65741867     1.73200
Fe443      Fe  0.77689772  0.93120172  0.62798844     1.54400
O444        O  0.77836888  0.92117242  0.59407843    -0.82000
O445        O  0.80598532  0.93122820  0.68037143    -0.80300
O446        O  0.79783833  0.88415901  0.59199086    -0.84500
O447        O  0.76223855  0.86931854  0.62799082    -0.79300
O448        O  0.80359786  0.95856067  0.62105830    -0.81100
O449        O  0.82621229  0.88202199  0.67581503    -0.83800
C450        C  0.74402837  0.88376693  0.63227613     0.96900
C451        C  0.78788764  0.90328067  0.58271683     1.04400
O452        O  0.80232241  0.90561973  0.63676898    -1.12800
O453        O  0.85742669  0.89869514  0.63729421    -0.75200
O454        O  0.83873195  0.86656260  0.62039809    -0.78700
O455        O  0.74641861  0.90740496  0.63385362    -0.79400
C456        C  0.85830830  0.87862515  0.62581625     0.95800
O457        O  0.80288264  0.85468437  0.65648430    -0.77400
O458        O  0.83676734  0.94812140  0.64187861    -0.82600
C459        C  0.78551992  0.94326087  0.67896229     0.98500
C460        C  0.82545500  0.96302808  0.62863068     1.04400
O461        O  0.77290693  0.94496992  0.66075169    -0.78200
C462        C  0.81489497  0.86124581  0.67402296     1.02700
Fe463      Fe  0.80317790  0.87941625  0.36970232     1.65800
Fe464      Fe  0.82810376  0.92707895  0.33951324     1.73200
Fe465      Fe  0.77401513  0.93693711  0.36850507     1.54400
O466        O  0.74607123  0.90941064  0.36502612    -0.82000
O467        O  0.83643943  0.95544394  0.36142602    -0.80300
O468        O  0.76670767  0.87346334  0.36039806    -0.84500
O469        O  0.79319009  0.88902919  0.40252688    -0.79300
O470        O  0.76616906  0.94777203  0.33544138    -0.81100
O471        O  0.85669038  0.90614948  0.35395548    -0.83800
C472        C  0.78556060  0.90855209  0.41286238     0.96900
C473        C  0.74660877  0.88612359  0.36027328     1.04400
O474        O  0.80175716  0.91448147  0.35947196    -1.12800
O475        O  0.82054294  0.89958782  0.31632317    -0.75200
O476        O  0.81325637  0.86588590  0.33789452    -0.78700
O477        O  0.77899350  0.92842231  0.40247577    -0.79400
C478        C  0.81699799  0.87621047  0.31873187     0.95800
O479        O  0.84034303  0.88072436  0.37976770    -0.77400
O480        O  0.80479533  0.95056360  0.32148961    -0.82600
C481        C  0.82190639  0.97159450  0.37022275     0.98500
C482        C  0.78154533  0.95521546  0.32048103     1.04400
O483        O  0.79834364  0.96778756  0.37256241    -0.78200
C484        C  0.85913562  0.89025000  0.36979481     1.02700
Fe485      Fe  0.20312364  0.11082510  0.62420868     1.65800
Fe486      Fe  0.17933941  0.06341715  0.65615147     1.73200
Fe487      Fe  0.23095695  0.05226989  0.62341403     1.54400
O488        O  0.22438384  0.06191344  0.58995299    -0.82000
O489        O  0.20442559  0.04258477  0.67446355    -0.80300
O490        O  0.20978289  0.10112032  0.59076056    -0.84500
O491        O  0.24067597  0.11598827  0.63055752    -0.79300
O492        O  0.20609479  0.02197726  0.61968897    -0.81100
O493        O  0.18676364  0.09226450  0.67800591    -0.83800
C494        C  0.26023680  0.10250510  0.62986142     0.96900
C495        C  0.21715185  0.08181784  0.57999932     1.04400
O496        O  0.20445638  0.07545836  0.63443507    -1.12800
O497        O  0.14990613  0.08266031  0.64157688    -0.75200
O498        O  0.16500827  0.11046594  0.61711604    -0.78700
O499        O  0.25960086  0.07902994  0.62601344    -0.79400
C500        C  0.14670123  0.09964428  0.62680834     0.95800
O501        O  0.19654038  0.12515706  0.65639757    -0.77400
O502        O  0.17029665  0.03297236  0.63653993    -0.82600
C503        C  0.22712495  0.03593587  0.67307121     0.98500
C504        C  0.18334931  0.01753409  0.62515743     1.04400
O505        O  0.24055469  0.03987398  0.65566473    -0.78200
C506        C  0.19211151  0.11526171  0.67556645     1.02700
Fe507      Fe  0.20663009  0.11991317  0.36705648     1.65800
Fe508      Fe  0.18232274  0.07401338  0.33355699     1.73200
Fe509      Fe  0.23450211  0.06135913  0.36549316     1.54400
O510        O  0.26317067  0.08794106  0.36232618    -0.82000
O511        O  0.17454077  0.04180078  0.35134546    -0.80300
O512        O  0.24420283  0.12522368  0.36162228    -0.84500
O513        O  0.21232462  0.10858005  0.40021802    -0.79300
O514        O  0.24310920  0.04906272  0.33295087    -0.81100
O515        O  0.15255589  0.09109224  0.35011239    -0.83800
C516        C  0.22067787  0.08909325  0.41008632     0.96900
C517        C  0.26367880  0.11171038  0.36047340     1.04400
O518        O  0.20781746  0.08505871  0.35543777    -1.12800
O519        O  0.18780350  0.10472341  0.31316614    -0.75200
O520        O  0.20062269  0.13586388  0.33549544    -0.78700
O521        O  0.22907183  0.07029794  0.39924102    -0.79400
C522        C  0.19404308  0.12735673  0.31635578     0.95800
O523        O  0.16860553  0.11965571  0.37335530    -0.77400
O524        O  0.20795456  0.05574827  0.31350324    -0.82600
C525        C  0.18711793  0.02679627  0.36359191     0.98500
C526        C  0.23021813  0.04762421  0.31492466     1.04400
O527        O  0.20951820  0.03148897  0.36980659    -0.78200
C528        C  0.15002720  0.10847469  0.36459296     1.02700
Fe529      Fe  0.79935373  0.12077025  0.12389659     1.65800
Fe530      Fe  0.82804962  0.07582609  0.15562589     1.73200
Fe531      Fe  0.77432676  0.06085079  0.12691968     1.54400
O532        O  0.74455072  0.08602198  0.13078290    -0.82000
O533        O  0.83573190  0.04337793  0.13824807    -0.80300
O534        O  0.76182649  0.12401487  0.13050717    -0.84500
O535        O  0.79289526  0.10884088  0.09120572    -0.79300
O536        O  0.76806736  0.04924062  0.16026407    -0.81100
O537        O  0.85566552  0.09342564  0.13692552    -0.83800
C538        C  0.78506947  0.08895594  0.08169678     0.96900
C539        C  0.74303219  0.10971579  0.13251381     1.04400
O540        O  0.80059049  0.08577043  0.13535852    -1.12800
O541        O  0.82311796  0.10661453  0.17588029    -0.75200
O542        O  0.80534244  0.13684510  0.15529628    -0.78700
O543        O  0.77794400  0.06971355  0.09279450    -0.79400
C544        C  0.81427236  0.12852183  0.17371167     0.95800
O545        O  0.83724679  0.12306450  0.11630372    -0.77400
O546        O  0.80440341  0.05743440  0.17732996    -0.82600
C547        C  0.82273456  0.02750499  0.12742344     0.98500
C548        C  0.78222432  0.04893673  0.17759734     1.04400
O549        O  0.79992382  0.03156488  0.12215149    -0.78200
C550        C  0.85672856  0.11174043  0.12322204     1.02700
Fe551      Fe  0.80330495  0.11410850  0.86805908     1.65800
Fe552      Fe  0.82772041  0.06753050  0.83572660     1.73200
Fe553      Fe  0.77694141  0.05520846  0.86894188     1.54400
O554        O  0.78532444  0.06371185  0.90220050    -0.82000
O555        O  0.80257624  0.04615022  0.81796893    -0.80300
O556        O  0.79676355  0.10397654  0.90145386    -0.84500
O557        O  0.76585887  0.11878234  0.86182036    -0.79300
O558        O  0.80214607  0.02491855  0.87084928    -0.81100
O559        O  0.81902486  0.09611834  0.81394913    -0.83800
C560        C  0.74657710  0.10520063  0.86412250     0.96900
C561        C  0.79124942  0.08398963  0.91216170     1.04400
O562        O  0.80267685  0.07892922  0.85770414    -1.12800
O563        O  0.85695876  0.08748354  0.84994508    -0.75200
O564        O  0.84114702  0.11406648  0.87514279    -0.78700
O565        O  0.74778156  0.08182962  0.86851261    -0.79400
C566        C  0.85963902  0.10401185  0.86517360     0.95800
O567        O  0.80970932  0.12875330  0.83594807    -0.77400
O568        O  0.83808958  0.03742791  0.85526097    -0.82600
C569        C  0.77966502  0.04009106  0.81922032     0.98500
C570        C  0.82512577  0.02118560  0.86575704     1.04400
O571        O  0.76622945  0.04424545  0.83659706    -0.78200
C572        C  0.81369255  0.11906131  0.81664548     1.02700
Fe573      Fe  0.88308245  0.79872503  0.12418429     1.65800
Fe574      Fe  0.92988524  0.82220792  0.15614097     1.73200
Fe575      Fe  0.94081116  0.76996816  0.12507665     1.54400
O576        O  0.91330170  0.74170211  0.12647338    -0.82000
O577        O  0.95835151  0.83213533  0.13480893    -0.80300
O578        O  0.87708452  0.76175620  0.13203499    -0.84500
O579        O  0.89304426  0.78975565  0.09111146    -0.79300
O580        O  0.95126659  0.76028264  0.15787073    -0.81100
O581        O  0.90872404  0.85125215  0.14280266    -0.83800
C582        C  0.91292932  0.78271399  0.08096584     0.96900
C583        C  0.88982669  0.74171987  0.13063661     1.04400
O584        O  0.91789514  0.79688703  0.13496142    -1.12800
O585        O  0.90212048  0.81330718  0.17871067    -0.75200
O586        O  0.86892248  0.80805354  0.15610850    -0.78700
O587        O  0.93283049  0.77669374  0.09149368    -0.79400
C588        C  0.87868674  0.81106980  0.17560515     0.95800
O589        O  0.88484340  0.83622169  0.11528180    -0.77400
O590        O  0.95349212  0.79817494  0.17330528    -0.82600
C591        C  0.97487598  0.81836061  0.12561749     0.98500
C592        C  0.95855253  0.77498235  0.17338634     1.04400
O593        O  0.97150403  0.79486357  0.12240908    -0.78200
C594        C  0.89353491  0.85447339  0.12653723     1.02700
Fe595      Fe  0.88688859  0.79328541  0.86775101     1.65800
Fe596      Fe  0.93539272  0.81762703  0.83806793     1.73200
Fe597      Fe  0.94412873  0.76374423  0.86767386     1.54400
O598        O  0.93532592  0.76965870  0.90131460    -0.82000
O599        O  0.95823093  0.79366080  0.82002027    -0.80300
O600        O  0.89586956  0.78378709  0.90078059    -0.84500
O601        O  0.88060964  0.75669188  0.85903483    -0.79300
O602        O  0.97525107  0.78769670  0.87176470    -0.81100
O603        O  0.90815819  0.81048715  0.81458397    -0.83800
C604        C  0.89295110  0.73643491  0.86000818     0.96900
C605        C  0.91532541  0.77643101  0.91137383     1.04400
O606        O  0.92210565  0.79153118  0.85801506    -1.12800
O607        O  0.91459162  0.84644528  0.85211310    -0.75200
O608        O  0.88822599  0.83052164  0.87734639    -0.78700
O609        O  0.91624936  0.73590605  0.86483079    -0.79400
C610        C  0.89812021  0.84913716  0.86742747     0.95800
O611        O  0.87413462  0.80293937  0.83567422    -0.77400
O612        O  0.96358736  0.82585240  0.86034528    -0.82600
C613        C  0.96154593  0.77018085  0.81902257     0.98500
C614        C  0.97923671  0.81124525  0.86974438     1.04400
O615        O  0.95481066  0.75536929  0.83472932    -0.78200
C616        C  0.88477819  0.80677345  0.81668700     1.02700
Fe617      Fe  0.20385337  0.87864303  0.12448324     1.65800
Fe618      Fe  0.18054374  0.92422368  0.15898787     1.73200
Fe619      Fe  0.23061391  0.93765107  0.12445993     1.54400
O620        O  0.26013787  0.91149157  0.12628093    -0.82000
O621        O  0.17122277  0.95668210  0.14187546    -0.80300
O622        O  0.24165177  0.87407431  0.12848049    -0.84500
O623        O  0.20812005  0.88970856  0.09130584    -0.79300
O624        O  0.24064041  0.95013109  0.15650514    -0.81100
O625        O  0.15033534  0.90664642  0.14352004    -0.83800
C626        C  0.21555179  0.90912150  0.08082636     0.96900
C627        C  0.26106878  0.88773378  0.12851588     1.04400
O628        O  0.20498226  0.91358202  0.13589399    -1.12800
O629        O  0.18756671  0.89349681  0.17907629    -0.75200
O630        O  0.19951041  0.86256951  0.15613793    -0.78700
O631        O  0.22358915  0.92851715  0.09097928    -0.79400
C632        C  0.19387718  0.87094002  0.17555338     0.95800
O633        O  0.16561009  0.87845182  0.11946761    -0.77400
O634        O  0.20689371  0.94299112  0.17791414    -0.82600
C635        C  0.18290809  0.97198169  0.12915785     0.98500
C636        C  0.22877922  0.95168755  0.17510960     1.04400
O637        O  0.20482121  0.96729923  0.12149314    -0.78200
C638        C  0.14730067  0.88943886  0.12891582     1.02700
Fe639      Fe  0.20672913  0.87279525  0.86848294     1.65800
Fe640      Fe  0.17909214  0.91901257  0.83758486     1.73200
Fe641      Fe  0.23286682  0.93218355  0.86711625     1.54400
O642        O  0.22871407  0.92248252  0.90077260    -0.82000
O643        O  0.20347127  0.93703250  0.81613664    -0.80300
O644        O  0.21237171  0.88393576  0.90157401    -0.84500
O645        O  0.24432256  0.86887429  0.86246207    -0.79300
O646        O  0.20771079  0.96168942  0.87297275    -0.81100
O647        O  0.18286628  0.88852244  0.81690346    -0.83800
C648        C  0.26339874  0.88280903  0.86057975     0.96900
C649        C  0.22033389  0.90353928  0.91146241     1.04400
O650        O  0.20628254  0.90801946  0.85774726    -1.12800
O651        O  0.15083363  0.90215088  0.85621761    -0.75200
O652        O  0.16888134  0.87124725  0.87551190    -0.78700
O653        O  0.26230693  0.90653322  0.86254675    -0.79400
C654        C  0.14960351  0.88339525  0.86940720     0.95800
O655        O  0.20093542  0.85769941  0.83654055    -0.77400
O656        O  0.17238919  0.95104826  0.85549719    -0.82600
C657        C  0.22563697  0.94555143  0.81673187     0.98500
C658        C  0.18502157  0.96606515  0.86752039     1.04400
O659        O  0.23932328  0.94481128  0.83432812    -0.78200
C660        C  0.19158758  0.86651957  0.81844612     1.02700
Fe661      Fe  0.12121174  0.20178265  0.12427125     1.65800
Fe662      Fe  0.07361921  0.17860472  0.15641957     1.73200
Fe663      Fe  0.06341418  0.23126373  0.12427255     1.54400
O664        O  0.09055994  0.25956897  0.12703110    -0.82000
O665        O  0.04277069  0.17075151  0.13679210    -0.80300
O666        O  0.12714095  0.23953276  0.12884106    -0.84500
O667        O  0.11050854  0.20663048  0.09078477    -0.79300
O668        O  0.05114319  0.24058246  0.15663231    -0.81100
O669        O  0.09190158  0.14837757  0.14164619    -0.83800
C670        C  0.09146947  0.21535890  0.08040224     0.96900
C671        C  0.11429761  0.25950939  0.12923713     1.04400
O672        O  0.08607348  0.20390695  0.13491978    -1.12800
O673        O  0.10305302  0.18470826  0.17820157    -0.75200
O674        O  0.13547893  0.19649427  0.15664891    -0.78700
O675        O  0.07277911  0.22490939  0.09068228    -0.79400
C676        C  0.12592891  0.19068130  0.17568992     0.95800
O677        O  0.12122480  0.16339023  0.11870878    -0.77400
O678        O  0.05363767  0.20420246  0.17509504    -0.82600
C679        C  0.02783941  0.18434865  0.12534916     0.98500
C680        C  0.04718532  0.22700167  0.17394802     1.04400
O681        O  0.03277027  0.20707957  0.12028307    -0.78200
C682        C  0.10983814  0.14508680  0.12781717     1.02700
Fe683      Fe  0.12411983  0.19303669  0.86847630     1.65800
Fe684      Fe  0.07913382  0.16783585  0.83465438     1.73200
Fe685      Fe  0.06581059  0.22117570  0.86488489     1.54400
O686        O  0.07498477  0.21867872  0.89906402    -0.82000
O687        O  0.06225849  0.19272636  0.81292995    -0.80300
O688        O  0.11188900  0.19924688  0.90112234    -0.84500
O689        O  0.12918513  0.23042553  0.86224149    -0.79300
O690        O  0.03666386  0.19614976  0.87094982    -0.81100
O691        O  0.11070429  0.17185371  0.81504964    -0.83800
C692        C  0.11586792  0.24969893  0.85865607     0.96900
C693        C  0.09297448  0.20936875  0.91044637     1.04400
O694        O  0.08961942  0.19400661  0.85607432    -1.12800
O695        O  0.09496488  0.13883466  0.85303202    -0.75200
O696        O  0.12383833  0.15516448  0.87573167    -0.78700
O697        O  0.09204487  0.24948329  0.85944389    -0.79400
C698        C  0.11211247  0.13648486  0.86778685     0.95800
O699        O  0.14093729  0.18662608  0.83740040    -0.77400
O700        O  0.04610611  0.16143656  0.85167170    -0.82600
C701        C  0.05295585  0.21451999  0.81397722     0.98500
C702        C  0.03164013  0.17395649  0.86447715     1.04400
O703        O  0.05287635  0.22740879  0.83204537    -0.78200
C704        C  0.13305117  0.17896667  0.81839194     1.02700
C705        C  0.05775092  0.24237744  0.98247263    -0.18100
C706        C  0.05752997  0.24315742  0.00619379    -0.20300
C707        C  0.07404231  0.22812873  0.01883508     0.20400
C708        C  0.09086782  0.21207663  0.00742647    -0.03200
C709        C  0.09107401  0.21127373  0.98348448    -0.06300
C710        C  0.07446903  0.22653538  0.97093355     0.20700
C711        C  0.10799546  0.19529175  0.97213529     0.18800
C712        C  0.12432033  0.18005734  0.98474568    -0.17700
C713        C  0.12412533  0.18086162  0.00842169    -0.20000
C714        C  0.10760476  0.19691479  0.01991442     0.20300
C715        C  0.10765812  0.19814033  0.04365693    -0.33000
C716        C  0.09106297  0.21418823  0.05523861     0.01000
C717        C  0.07414017  0.22897962  0.04264497    -0.24300
C718        C  0.07496346  0.22576079  0.94710650    -0.28900
C719        C  0.09202197  0.21006720  0.93563500     0.06700
C720        C  0.10841114  0.19485939  0.94838341    -0.27600
H721        H  0.04486782  0.25423425  0.97314257     0.11400
H722        H  0.04448377  0.25560138  0.01465817     0.12500
H723        H  0.13735367  0.16759474  0.97628511     0.11600
H724        H  0.13701411  0.16900741  0.01775148     0.10800
H725        H  0.12059410  0.18646186  0.05313159     0.16200
H726        H  0.06126776  0.24141821  0.05134687     0.12100
H727        H  0.06227140  0.23758090  0.93751380     0.15000
H728        H  0.12149683  0.18252399  0.93981677     0.14800
C729        C  0.11128400  0.02106291  0.86244477    -0.18100
C730        C  0.10082231  0.04507520  0.86243332    -0.20300
C731        C  0.11474197  0.06560985  0.87025063     0.20400
C732        C  0.13905377  0.06175827  0.87908503    -0.03200
C733        C  0.14973437  0.03749457  0.87889237    -0.06300
C734        C  0.13588712  0.01722409  0.87014357     0.20700
C735        C  0.17461611  0.03374594  0.88642479     0.18800
C736        C  0.18805498  0.05416645  0.89523995    -0.17700
C737        C  0.17738751  0.07820611  0.89560819    -0.20000
C738        C  0.15314471  0.08230523  0.88703344     0.20300
C739        C  0.14331087  0.10669106  0.88506141    -0.33000
C740        C  0.11982610  0.11081135  0.87470162     0.01000
C741        C  0.10527784  0.09003336  0.86821246    -0.24300
C742        C  0.14720512  0.99367781  0.86816449    -0.28900
C743        C  0.17255232  0.98998006  0.87412425     0.06700
C744        C  0.18592306  0.00997084  0.88399637    -0.27600
H745        H  0.10039826  0.00560648  0.85575093     0.11400
H746        H  0.08209134  0.04768771  0.85571170     0.12500
H747        H  0.20707842  0.05168473  0.90129065     0.11600
H748        H  0.18842956  0.09374476  0.90191897     0.10800
H749        H  0.15468510  0.12252984  0.89020052     0.16200
H750        H  0.08706236  0.09291861  0.86047287     0.12100
H751        H  0.13646738  0.97846606  0.86083125     0.15000
H752        H  0.20537624  0.00738790  0.88878999     0.14800
C753        C  0.09978185  0.05319269  0.13706587    -0.18100
C754        C  0.11005558  0.02902197  0.13722413    -0.20300
C755        C  0.13468587  0.02484963  0.12963922     0.20400
C756        C  0.14886550  0.04515089  0.12123130    -0.03200
C757        C  0.13843245  0.06962352  0.12101116    -0.06300
C758        C  0.11391077  0.07368596  0.12928835     0.20700
C759        C  0.15279312  0.09008900  0.11315773     0.18800
C760        C  0.17726296  0.08579673  0.10516459    -0.17700
C761        C  0.18760368  0.06159706  0.10543805    -0.20000
C762        C  0.17368873  0.04114151  0.11366916     0.20300
C763        C  0.18439362  0.01696543  0.11514151    -0.33000
C764        C  0.17066464  0.99670478  0.12428671     0.01000
C765        C  0.14557836  0.00087884  0.13100948    -0.24300
C766        C  0.10423233  0.09821506  0.13037162    -0.28900
C767        C  0.11868362  0.11894256  0.12329995     0.06700
C768        C  0.14277589  0.11454203  0.11415939    -0.27600
H769        H  0.08089570  0.05591736  0.14340806     0.11400
H770        H  0.09886035  0.01363169  0.14368091     0.12500
H771        H  0.18859735  0.10125332  0.09904812     0.11600
H772        H  0.20666749  0.05895299  0.09952211     0.10800
H773        H  0.20371723  0.01417958  0.11000009     0.16200
H774        H  0.13465702  0.98557891  0.13802467     0.12100
H775        H  0.08567254  0.10122370  0.13738505     0.15000
H776        H  0.15422796  0.13025433  0.10877957     0.14800
C777        C  0.22481830  0.95198093  0.00681154    -0.18100
C778        C  0.22567572  0.95113107  0.98314435    -0.20300
C779        C  0.22188200  0.92841470  0.97167840     0.20400
C780        C  0.21681567  0.90640328  0.98415023    -0.03200
C781        C  0.21593802  0.90726498  0.00802038    -0.06300
C782        C  0.22012380  0.93013858  0.01940473     0.20700
C783        C  0.21108463  0.88520281  0.02047279     0.18800
C784        C  0.20695759  0.86254639  0.00900970    -0.17700
C785        C  0.20777636  0.86170413  0.98536007    -0.20000
C786        C  0.21279590  0.88348839  0.97279938     0.20300
C787        C  0.21400407  0.88270418  0.94910371    -0.33000
C788        C  0.21938125  0.90448883  0.93652365     0.01000
C789        C  0.22318414  0.92731141  0.94797948    -0.24300
C790        C  0.21974500  0.93073181  0.04316388    -0.28900
C791        C  0.21513700  0.90875778  0.05572256     0.06700
C792        C  0.21064410  0.88610690  0.04417486    -0.27600
H793        H  0.22797789  0.96971197  0.01527648     0.11400
H794        H  0.22946719  0.96822466  0.97380808     0.12500
H795        H  0.20319296  0.84544453  0.01834443     0.11600
H796        H  0.20461370  0.84397299  0.97689371     0.10800
H797        H  0.21092584  0.86504192  0.94047956     0.16200
H798        H  0.22702195  0.94428657  0.93846544     0.12100
H799        H  0.22312796  0.94829434  0.05185764     0.15000
H800        H  0.20714808  0.86901472  0.05362523     0.14800
C801        C  0.03390788  0.88526944  0.87777832    -0.18100
C802        C  0.05802735  0.89562871  0.87739634    -0.20300
C803        C  0.07923687  0.88010762  0.87882526     0.20400
C804        C  0.07605464  0.85401713  0.88184661    -0.03200
C805        C  0.05170697  0.84352825  0.88198721    -0.06300
C806        C  0.03060028  0.85920216  0.87942246     0.20700
C807        C  0.04857958  0.81727187  0.88349536     0.18800
C808        C  0.06976066  0.80188615  0.88603791    -0.17700
C809        C  0.09385781  0.81228815  0.88612926    -0.20000
C810        C  0.09720984  0.83823975  0.88352158     0.20300
C811        C  0.12132069  0.84847602  0.88130283    -0.33000
C812        C  0.12460304  0.87415915  0.87660525     0.01000
C813        C  0.10349113  0.89000503  0.87609841    -0.24300
C814        C  0.00669932  0.84847516  0.87725908    -0.28900
C815        C  0.00355637  0.82220495  0.87712898     0.06700
C816        C  0.02451309  0.80678117  0.88119464    -0.27600
H817        H  0.01785872  0.89758705  0.87597210     0.11400
H818        H  0.06009682  0.91571052  0.87530689     0.12500
H819        H  0.06773532  0.78172012  0.88732662     0.11600
H820        H  0.10992485  0.79992478  0.88749744     0.10800
H821        H  0.13745730  0.83609547  0.88164714     0.16200
H822        H  0.10587815  0.90984406  0.87268513     0.12100
H823        H  0.99068842  0.86062331  0.87443106     0.15000
H824        H  0.02236632  0.78657054  0.88119568     0.14800
C825        C  0.06489302  0.81206914  0.10474715    -0.18100
C826        C  0.08912648  0.82219966  0.10533508    -0.20300
C827        C  0.09308120  0.84689503  0.11275279     0.20400
C828        C  0.07233613  0.86178876  0.11896588    -0.03200
C829        C  0.04785219  0.85165043  0.11811980    -0.06300
C830        C  0.04413978  0.82649921  0.11142142     0.20700
C831        C  0.02721696  0.86641145  0.12479444     0.18800
C832        C  0.03107267  0.89127680  0.13174525    -0.17700
C833        C  0.05531576  0.90120885  0.13283016    -0.20000
C834        C  0.07610290  0.88651902  0.12679260     0.20300
C835        C  0.10059560  0.89584762  0.12915953    -0.33000
C836        C  0.12144942  0.88088181  0.12360544     0.01000
C837        C  0.11745022  0.85663527  0.11483799    -0.24300
C838        C  0.01995153  0.81593383  0.11247176    -0.28900
C839        C  0.99943364  0.83024359  0.12014851     0.06700
C840        C  0.00321044  0.85576849  0.12541887    -0.27600
H841        H  0.06244338  0.79277599  0.09947820     0.11400
H842        H  0.10485631  0.81050752  0.10046898     0.12500
H843        H  0.01537558  0.90286095  0.13690473     0.11600
H844        H  0.05783826  0.92025232  0.13877389     0.10800
H845        H  0.10344227  0.91455968  0.13582826     0.16200
H846        H  0.13336215  0.84484751  0.11065482     0.12100
H847        H  0.01734763  0.79632178  0.10831131     0.15000
H848        H  0.98764260  0.86716065  0.13122894     0.14800
C849        C  0.95605043  0.76245698  0.00904208    -0.18100
C850        C  0.95638955  0.76141802  0.98537535    -0.20300
C851        C  0.93534340  0.76894212  0.97282104     0.20400
C852        C  0.91366964  0.77741171  0.98424195    -0.03200
C853        C  0.91333493  0.77848147  0.00813137    -0.06300
C854        C  0.93467373  0.77106150  0.02055483     0.20700
C855        C  0.89172923  0.78712639  0.01954987     0.18800
C856        C  0.87060588  0.79444687  0.00699589    -0.17700
C857        C  0.87094274  0.79340333  0.98332694    -0.20000
C858        C  0.89239648  0.78500379  0.97181070     0.20300
C859        C  0.89299748  0.78428290  0.94808714    -0.33000
C860        C  0.91462520  0.77613708  0.93650150     0.01000
C861        C  0.93568419  0.76834512  0.94906323    -0.24300
C862        C  0.93434460  0.77249400  0.04425911    -0.28900
C863        C  0.91295932  0.78127102  0.05584264     0.06700
C864        C  0.89166162  0.78843470  0.04329464    -0.27600
H865        H  0.97257757  0.75664012  0.01834830     0.11400
H866        H  0.97316778  0.75483535  0.97688432     0.12500
H867        H  0.85385141  0.80109461  0.01548213     0.11600
H868        H  0.85444002  0.79928125  0.97401580     0.10800
H869        H  0.87663349  0.79034176  0.93865981     0.16200
H870        H  0.95245407  0.76202085  0.94038324     0.12100
H871        H  0.95084345  0.76678500  0.05367183     0.15000
H872        H  0.87503999  0.79514273  0.05196900     0.14800
C873        C  0.90840897  0.94052268  0.85919093    -0.18100
C874        C  0.89807299  0.96461341  0.85884935    -0.20300
C875        C  0.87337739  0.96868781  0.86625749     0.20400
C876        C  0.85916689  0.94842100  0.87468593    -0.03200
C877        C  0.86967315  0.92405105  0.87513810    -0.06300
C878        C  0.89425579  0.92008542  0.86699407     0.20700
C879        C  0.85530346  0.90356957  0.88297578     0.18800
C880        C  0.83076543  0.90779263  0.89080523    -0.17700
C881        C  0.82032164  0.93193078  0.89026621    -0.20000
C882        C  0.83422967  0.95234934  0.88195801     0.20300
C883        C  0.82342061  0.97640623  0.88008704    -0.33000
C884        C  0.83724115  0.99659522  0.87096558     0.01000
C885        C  0.86244613  0.99253893  0.86464062    -0.24300
C886        C  0.90393053  0.89566229  0.86590168    -0.28900
C887        C  0.88939079  0.87495427  0.87271590     0.06700
C888        C  0.86534668  0.87915866  0.88194162    -0.27600
H889        H  0.92733004  0.93780170  0.85293020     0.11400
H890        H  0.90924809  0.98000059  0.85235309     0.12500
H891        H  0.81944226  0.89232501  0.89691370     0.11600
H892        H  0.80118214  0.93454611  0.89599254     0.10800
H893        H  0.80401638  0.97916986  0.88498532     0.16200
H894        H  0.87342796  0.00779404  0.85761994     0.12100
H895        H  0.92251429  0.89268830  0.85891626     0.15000
H896        H  0.85391320  0.86335100  0.88712532     0.14800
C897        C  0.95120714  0.09096227  0.86308883    -0.18100
C898        C  0.97550530  0.10079024  0.86342531    -0.20300
C899        C  0.97951688  0.12611508  0.86870850     0.20400
C900        C  0.95899685  0.14147240  0.87462421    -0.03200
C901        C  0.93446531  0.13150232  0.87442865    -0.06300
C902        C  0.93054935  0.10627165  0.86815103     0.20700
C903        C  0.91381107  0.14703333  0.87961118     0.18800
C904        C  0.91792900  0.17219932  0.88547552    -0.17700
C905        C  0.94223969  0.18212082  0.88553111    -0.20000
C906        C  0.96286165  0.16702507  0.87979328     0.20300
C907        C  0.98707095  0.17728351  0.87805864    -0.33000
C908        C  0.00736122  0.16236858  0.87087402     0.01000
C909        C  0.00352730  0.13659467  0.86707866    -0.24300
C910        C  0.90602284  0.09705553  0.86618413    -0.28900
C911        C  0.88531292  0.11265162  0.87057275     0.06700
C912        C  0.88937478  0.13740464  0.87794070    -0.27600
H913        H  0.94852747  0.07152169  0.85837223     0.11400
H914        H  0.99110747  0.08874398  0.85893431     0.12500
H915        H  0.90227975  0.18437779  0.88950906     0.11600
H916        H  0.94484850  0.20175591  0.88957606     0.10800
H917        H  0.98980447  0.19714903  0.88102084     0.16200
H918        H  0.01906764  0.12485208  0.86178188     0.12100
H919        H  0.90301705  0.07792362  0.86062292     0.15000
H920        H  0.87349058  0.14959246  0.88117723     0.14800
C921        C  0.81659594  0.93815473  0.10394954    -0.18100
C922        C  0.82669494  0.91387344  0.10365713    -0.20300
C923        C  0.85122325  0.90940500  0.11135339     0.20400
C924        C  0.86591025  0.92975749  0.11889655    -0.03200
C925        C  0.85577726  0.95428981  0.11902791    -0.06300
C926        C  0.83086567  0.95848349  0.11183361     0.20700
C927        C  0.87033632  0.97446788  0.12704598     0.18800
C928        C  0.89498228  0.97011740  0.13443404    -0.17700
C929        C  0.90492695  0.94585125  0.13447393    -0.20000
C930        C  0.89044680  0.92551602  0.12702057     0.20300
C931        C  0.89976978  0.90094712  0.12833590    -0.33000
C932        C  0.88499044  0.88042192  0.12156425     0.01000
C933        C  0.86097582  0.88488720  0.11245921    -0.24300
C934        C  0.82042392  0.98271792  0.11339856    -0.28900
C935        C  0.83458167  0.00282391  0.12215291     0.06700
C936        C  0.85977531  0.99850803  0.12833288    -0.27600
H937        H  0.79745648  0.94096563  0.09832760     0.11400
H938        H  0.81512259  0.89849478  0.09781782     0.12500
H939        H  0.90641566  0.98543133  0.14063183     0.11600
H940        H  0.92381960  0.94293215  0.14070590     0.10800
H941        H  0.91832530  0.89772082  0.13527118     0.16200
H942        H  0.84936452  0.86919095  0.10738796     0.12100
H943        H  0.80101496  0.98567478  0.10863402     0.15000
H944        H  0.87100639  0.01370425  0.13506374     0.14800
C945        C  0.93734126  0.19325533  0.10692775    -0.18100
C946        C  0.91319967  0.18284352  0.10626783    -0.20300
C947        C  0.90961022  0.15703723  0.10983539     0.20400
C948        C  0.93067093  0.14146349  0.11331393    -0.03200
C949        C  0.95503277  0.15195565  0.11389223    -0.06300
C950        C  0.95837436  0.17804691  0.11108948     0.20700
C951        C  0.97591927  0.13643746  0.11821660     0.18800
C952        C  0.97245285  0.11055356  0.12114615    -0.17700
C953        C  0.94837241  0.10020600  0.12068757    -0.20000
C954        C  0.92734136  0.11555430  0.11723051     0.20300
C955        C  0.90303349  0.10562456  0.11877607    -0.33000
C956        C  0.88187604  0.12120437  0.11652795     0.01000
C957        C  0.88533722  0.14674359  0.11116035    -0.24300
C958        C  0.98250389  0.18853440  0.11343882    -0.28900
C959        C  0.00326204  0.17324388  0.11882640     0.06700
C960        C  0.99979361  0.14712638  0.12050346    -0.27600
H961        H  0.93949726  0.21330423  0.10467404     0.11400
H962        H  0.89726306  0.19509923  0.10354333     0.12500
H963        H  0.98833214  0.09837698  0.12439104     0.11600
H964        H  0.94615092  0.08026678  0.12361502     0.10800
H965        H  0.90057527  0.08592537  0.12277872     0.16200
H966        H  0.86917201  0.15895713  0.10954702     0.12100
H967        H  0.98487201  0.20867443  0.11220340     0.15000
H968        H  0.01559934  0.13510022  0.12447921     0.14800
C969        C  0.79270384  0.13206964  0.00776518    -0.18100
C970        C  0.79431941  0.13129821  0.98412879    -0.20300
C971        C  0.79236725  0.10838972  0.97259842     0.20400
C972        C  0.78869895  0.08604488  0.98499798    -0.03200
C973        C  0.78704435  0.08682558  0.00885888    -0.06300
C974        C  0.78915097  0.10994097  0.02027120     0.20700
C975        C  0.78338972  0.06447490  0.02127277     0.18800
C976        C  0.78140739  0.04158358  0.00972732    -0.17700
C977        C  0.78303552  0.04081151  0.98608792    -0.20000
C978        C  0.78663254  0.06292224  0.97357607     0.20300
C979        C  0.78794063  0.06232248  0.94984763    -0.33000
C980        C  0.79126788  0.08455431  0.93729879     0.01000
C981        C  0.79375167  0.10748831  0.94888723    -0.24300
C982        C  0.78797612  0.11050153  0.04399216    -0.28900
C983        C  0.78471727  0.08825119  0.05656792     0.06700
C984        C  0.78210224  0.06534552  0.04500924    -0.27600
H985        H  0.79432552  0.14998185  0.01627542     0.11400
H986        H  0.79707981  0.14863521  0.97486121     0.12500
H987        H  0.77864899  0.02424553  0.01899175     0.11600
H988        H  0.78142493  0.02289920  0.97757920     0.10800
H989        H  0.78613788  0.04452551  0.94115808     0.16200
H990        H  0.79630351  0.12475923  0.93945713     0.12100
H991        H  0.78982645  0.12830502  0.05266609     0.15000
H992        H  0.77963676  0.04809414  0.05448813     0.14800
C993        C  0.23739869  0.03260023  0.21226426    -0.18100
C994        C  0.23724119  0.04643363  0.23235266    -0.20300
C995        C  0.24111922  0.03450051  0.25325640     0.20400
C996        C  0.24631617  0.00855119  0.25389680    -0.03200
C997        C  0.24603874  0.99448847  0.23362457    -0.06300
C998        C  0.24116250  0.00656829  0.21277503     0.20700
C999        C  0.24895794  0.96817235  0.23440141     0.18800
C1000       C  0.25380267  0.95641831  0.25524875    -0.17700
C1001       C  0.25453771  0.97042568  0.27530171    -0.20000
C1002       C  0.25011803  0.99639017  0.27490312     0.20300
C1003       C  0.24765322  0.01008488  0.29515632    -0.33000
C1004       C  0.24055487  0.03546742  0.29453800     0.01000
C1005       C  0.23818165  0.04772716  0.27357646    -0.24300
C1006       C  0.23842921  0.99223578  0.19304404    -0.28900
C1007       C  0.23950309  0.96598098  0.19402815     0.06700
C1008       C  0.24535175  0.95401429  0.21458322    -0.27600
H1009       H  0.23361149  0.04212974  0.19640524     0.11400
H1010       H  0.23331284  0.06635652  0.23159977     0.12500
H1011       H  0.25626712  0.93627205  0.25614138     0.11600
H1012       H  0.25755804  0.96078046  0.29123390     0.10800
H1013       H  0.24903261  0.00053493  0.31133449     0.16200
H1014       H  0.23252012  0.06726573  0.27314792     0.12100
H1015       H  0.23330752  0.00133958  0.17726148     0.15000
H1016       H  0.24572612  0.93369791  0.21534752     0.14800
C1017       C  0.20615844  0.14186707  0.23527456    -0.18100
C1018       C  0.19639074  0.15127903  0.21500118    -0.20300
C1019       C  0.17621084  0.16817690  0.21528868     0.20400
C1020       C  0.16685739  0.17698401  0.23621632    -0.03200
C1021       C  0.17711127  0.16793660  0.25667429    -0.06300
C1022       C  0.19613606  0.14951409  0.25613158     0.20700
C1023       C  0.16699386  0.17585343  0.27760717     0.18800
C1024       C  0.14755864  0.19360856  0.27789714    -0.17700
C1025       C  0.13703541  0.20216075  0.25760944    -0.20000
C1026       C  0.14605447  0.19337268  0.23673792     0.20300
C1027       C  0.13362803  0.19928024  0.21650181    -0.33000
C1028       C  0.14209587  0.18943249  0.19580520     0.01000
C1029       C  0.16407574  0.17497595  0.19513195    -0.24300
C1030       C  0.20337919  0.13769027  0.27629634    -0.28900
C1031       C  0.19213799  0.14438729  0.29691897     0.06700
C1032       C  0.17505396  0.16437786  0.29771967    -0.27600
H1033       H  0.22091281  0.12790154  0.23461358     0.11400
H1034       H  0.20383794  0.14443126  0.19908615     0.12500
H1035       H  0.13967741  0.19995160  0.29381015     0.11600
H1036       H  0.12124238  0.21494927  0.25826765     0.10800
H1037       H  0.11666246  0.21051796  0.21691997     0.16200
H1038       H  0.17039957  0.16722193  0.17914269     0.12100
H1039       H  0.21655172  0.12218700  0.27581985     0.15000
H1040       H  0.16623052  0.16924691  0.31367871     0.14800
C1041       C  0.20346260  0.12876426  0.48441123    -0.18100
C1042       C  0.20282032  0.12765787  0.50808895    -0.20300
C1043       C  0.21040672  0.10584490  0.51953553     0.20400
C1044       C  0.21876702  0.08495200  0.50700046    -0.03200
C1045       C  0.21944030  0.08607853  0.48308592    -0.06300
C1046       C  0.21171146  0.10807853  0.47175153     0.20700
C1047       C  0.22779231  0.06518040  0.47054832     0.18800
C1048       C  0.23540915  0.04338312  0.48199763    -0.17700
C1049       C  0.23473438  0.04226540  0.50567406    -0.20000
C1050       C  0.22644150  0.06292998  0.51833519     0.20300
C1051       C  0.22573697  0.06195449  0.54210701    -0.33000
C1052       C  0.21747226  0.08273606  0.55480214     0.01000
C1053       C  0.20980501  0.10460474  0.54328069    -0.24300
C1054       C  0.21227609  0.10899096  0.44797897    -0.28900
C1055       C  0.22049318  0.08818383  0.43528003     0.06700
C1056       C  0.22830203  0.06637537  0.44679686    -0.27600
H1057       H  0.19747036  0.14581209  0.47599387     0.11400
H1058       H  0.19636262  0.14388206  0.51745779     0.12500
H1059       H  0.24186858  0.02716072  0.47262971     0.11600
H1060       H  0.24070414  0.02520851  0.51408953     0.10800
H1061       H  0.23171793  0.04500121  0.55069945     0.16200
H1062       H  0.20341137  0.12077227  0.55277582     0.12100
H1063       H  0.20624067  0.12592697  0.43938914     0.15000
H1064       H  0.23465626  0.05020118  0.43729113     0.14800
C1065       C  0.24589226  0.02219927  0.77471788    -0.18100
C1066       C  0.24593977  0.03523538  0.75412735    -0.20300
C1067       C  0.24329078  0.02232338  0.73357265     0.20400
C1068       C  0.24122520  0.99592184  0.73370159    -0.03200
C1069       C  0.24072974  0.98281259  0.75449787    -0.06300
C1070       C  0.24287089  0.99605987  0.77511770     0.20700
C1071       C  0.23670082  0.95664854  0.75468555     0.18800
C1072       C  0.23436585  0.94367958  0.73413560    -0.17700
C1073       C  0.23521385  0.95661670  0.71352310    -0.20000
C1074       C  0.23818209  0.98276142  0.71313668     0.20300
C1075       C  0.23655479  0.99612321  0.69269342    -0.33000
C1076       C  0.23725311  0.02241664  0.69267034     0.01000
C1077       C  0.24113133  0.03541177  0.71302485    -0.24300
C1078       C  0.24045679  0.98313765  0.79575377    -0.28900
C1079       C  0.23498283  0.95740960  0.79591178     0.06700
C1080       C  0.23366725  0.94416164  0.77541436    -0.27600
H1081       H  0.24743635  0.03265313  0.79036978     0.11400
H1082       H  0.24748381  0.05550039  0.75431212     0.12500
H1083       H  0.23128511  0.92359749  0.73402015     0.11600
H1084       H  0.23276504  0.94626287  0.69790968     0.10800
H1085       H  0.23269622  0.98624032  0.67704015     0.16200
H1086       H  0.24089642  0.05575668  0.71298882     0.12100
H1087       H  0.24086327  0.99337961  0.81159852     0.15000
H1088       H  0.22909952  0.92434613  0.77563599     0.14800
C1089       C  0.15185669  0.19699291  0.73884022    -0.18100
C1090       C  0.16069617  0.18788930  0.71809173    -0.20300
C1091       C  0.17516935  0.16591338  0.71727891     0.20400
C1092       C  0.18253409  0.15417978  0.73770940    -0.03200
C1093       C  0.17398469  0.16360169  0.75864445    -0.06300
C1094       C  0.15762512  0.18441851  0.75908559     0.20700
C1095       C  0.18005707  0.15088720  0.77894177     0.18800
C1096       C  0.19584192  0.12985538  0.77825571    -0.17700
C1097       C  0.20402056  0.12032649  0.75749537    -0.20000
C1098       C  0.19669601  0.13183260  0.73716594     0.20300
C1099       C  0.20156200  0.12030729  0.71636795    -0.33000
C1100       C  0.19248473  0.13079795  0.69613843     0.01000
C1101       C  0.18064684  0.15432873  0.69649566    -0.24300
C1102       C  0.14577026  0.19095070  0.77945397    -0.28900
C1103       C  0.15046683  0.17715871  0.79927541     0.06700
C1104       C  0.16857323  0.15811553  0.79926631    -0.27600
H1105       H  0.13959639  0.21320245  0.73895096     0.11400
H1106       H  0.15509701  0.19727801  0.70260902     0.12500
H1107       H  0.20080291  0.12001683  0.79368591     0.11600
H1108       H  0.21513510  0.10330073  0.75730135     0.10800
H1109       H  0.21106681  0.10231361  0.71599200     0.16200
H1110       H  0.17370557  0.16242226  0.68084742     0.12100
H1111       H  0.13167373  0.20562027  0.77962322     0.15000
H1112       H  0.17188159  0.14740236  0.81460964     0.14800
C1113       C  0.86588234  0.79810887  0.25693784    -0.18100
C1114       C  0.85662717  0.80718550  0.27751207    -0.20300
C1115       C  0.83969045  0.82731689  0.27784329     0.20400
C1116       C  0.83077786  0.83739673  0.25720626    -0.03200
C1117       C  0.83974229  0.82791054  0.23644256    -0.06300
C1118       C  0.85806135  0.80879828  0.23639263     0.20700
C1119       C  0.83168515  0.83872106  0.21582182     0.18800
C1120       C  0.81396898  0.85819010  0.21614092    -0.17700
C1121       C  0.80541523  0.86788635  0.23674232    -0.20000
C1122       C  0.81425942  0.85807962  0.25731032     0.20300
C1123       C  0.80827812  0.86964021  0.27789035    -0.33000
C1124       C  0.81840637  0.86062175  0.29829495     0.01000
C1125       C  0.83295253  0.83870155  0.29835561    -0.24300
C1126       C  0.86943223  0.80189606  0.21594750    -0.28900
C1127       C  0.86246017  0.81358668  0.19558276     0.06700
C1128       C  0.84277823  0.83107741  0.19540779    -0.27600
H1129       H  0.87979041  0.78328824  0.25712956     0.11400
H1130       H  0.86356535  0.79919021  0.29318484     0.12500
H1131       H  0.80753456  0.86662577  0.20048242     0.11600
H1132       H  0.79255843  0.88363494  0.23658306     0.10800
H1133       H  0.79682194  0.88645913  0.27796887     0.16200
H1134       H  0.84080493  0.83185887  0.31413590     0.12100
H1135       H  0.88466012  0.78839664  0.21597878     0.15000
H1136       H  0.83767941  0.84029793  0.17968516     0.14800
C1137       C  0.78963570  0.04807387  0.25999018    -0.18100
C1138       C  0.78974083  0.03464786  0.28030864    -0.20300
C1139       C  0.77969930  0.01036973  0.28126704     0.20400
C1140       C  0.76851439  0.99982687  0.26181898    -0.03200
C1141       C  0.76847379  0.01339285  0.24123377    -0.06300
C1142       C  0.77957276  0.03738200  0.24030622     0.20700
C1143       C  0.75858889  0.00245000  0.22136196     0.18800
C1144       C  0.74789958  0.97840565  0.22258111    -0.17700
C1145       C  0.74793812  0.96493161  0.24301621    -0.20000
C1146       C  0.75864372  0.97525042  0.26263698     0.20300
C1147       C  0.76092302  0.96104720  0.28269384    -0.33000
C1148       C  0.77316396  0.97120224  0.30165198     0.01000
C1149       C  0.78190574  0.99598457  0.30100109    -0.24300
C1150       C  0.78182084  0.04967847  0.21947906    -0.28900
C1151       C  0.77353817  0.03829413  0.19937450     0.06700
C1152       C  0.76095421  0.01513602  0.20047739    -0.27600
H1153       H  0.79814828  0.06652337  0.25950570     0.11400
H1154       H  0.79831852  0.04298247  0.29512596     0.12500
H1155       H  0.74016270  0.96970359  0.20756392     0.11600
H1156       H  0.74021648  0.94614572  0.24331123     0.10800
H1157       H  0.75466820  0.94171132  0.28311142     0.16200
H1158       H  0.79167433  0.00358005  0.31557337     0.12100
H1159       H  0.79138880  0.06761704  0.21868931     0.15000
H1160       H  0.75472941  0.00622025  0.18498451     0.14800
C1161       C  0.80119626  0.86312396  0.50847990    -0.18100
C1162       C  0.80044642  0.86371321  0.48484385    -0.20300
C1163       C  0.79261463  0.88542416  0.47341742     0.20400
C1164       C  0.78534519  0.90675317  0.48590248    -0.03200
C1165       C  0.78601407  0.90612627  0.50982131    -0.06300
C1166       C  0.79403562  0.88420259  0.52109386     0.20700
C1167       C  0.77870802  0.92737751  0.52242057     0.18800
C1168       C  0.77088553  0.94910627  0.51093695    -0.17700
C1169       C  0.77032010  0.94976101  0.48720225    -0.20000
C1170       C  0.77752638  0.92868600  0.47450821     0.20300
C1171       C  0.77726257  0.92917977  0.45066455    -0.33000
C1172       C  0.78473855  0.90798635  0.43806703     0.01000
C1173       C  0.79217812  0.88615716  0.44971180    -0.24300
C1174       C  0.79471763  0.88361645  0.54478582    -0.28900
C1175       C  0.78730898  0.90457464  0.55758977     0.06700
C1176       C  0.77933411  0.92646357  0.54623305    -0.27600
H1177       H  0.80737649  0.84614712  0.51690508     0.11400
H1178       H  0.80609528  0.84718513  0.47548354     0.12500
H1179       H  0.76522581  0.96561906  0.52031238     0.11600
H1180       H  0.76427103  0.96677878  0.47877126     0.10800
H1181       H  0.77147279  0.94612517  0.44195783     0.16200
H1182       H  0.79795298  0.86967881  0.44032928     0.12100
H1183       H  0.80086021  0.86664013  0.55325123     0.15000
H1184       H  0.77367843  0.94279399  0.55588015     0.14800
C1185       C  0.81292058  0.84125766  0.77537198    -0.18100
C1186       C  0.80246472  0.84875636  0.75475153    -0.20300
C1187       C  0.81309364  0.84082104  0.73423405     0.20400
C1188       C  0.83366905  0.82413254  0.73442370    -0.03200
C1189       C  0.84449231  0.81695001  0.75520242    -0.06300
C1190       C  0.83433477  0.82597616  0.77574741     0.20700
C1191       C  0.86644790  0.80214021  0.75533909     0.18800
C1192       C  0.87636435  0.79321220  0.73486281    -0.17700
C1193       C  0.86546776  0.80011331  0.71425097    -0.20000
C1194       C  0.84461947  0.81618059  0.71384494     0.20300
C1195       C  0.83584551  0.82609888  0.69333773    -0.33000
C1196       C  0.81685237  0.84428234  0.69335147     0.01000
C1197       C  0.80484969  0.85084755  0.71362098    -0.24300
C1198       C  0.84666040  0.82086334  0.79617323    -0.28900
C1199       C  0.86946034  0.80775357  0.79611176     0.06700
C1200       C  0.87889172  0.79778456  0.77582149    -0.27600
H1201       H  0.80488695  0.84825963  0.79099404     0.11400
H1202       H  0.78660792  0.86148106  0.75484554     0.12500
H1203       H  0.89307424  0.78162563  0.73474841     0.11600
H1204       H  0.87400611  0.79378022  0.69861095     0.10800
H1205       H  0.84540754  0.82160659  0.67763054     0.16200
H1206       H  0.79051724  0.86529605  0.71348007     0.12100
H1207       H  0.83952513  0.82861027  0.81188195     0.15000
H1208       H  0.89641688  0.78743460  0.77591730     0.14800
C1209       C  0.77029609  0.03777104  0.73711914    -0.18100
C1210       C  0.77171105  0.02379814  0.71712200    -0.20300
C1211       C  0.77164774  0.99748863  0.71787118     0.20400
C1212       C  0.76924197  0.98510956  0.73893001    -0.03200
C1213       C  0.76727234  0.99922719  0.75908814    -0.06300
C1214       C  0.76847172  0.02565663  0.75818162     0.20700
C1215       C  0.76564477  0.98686347  0.78022655     0.18800
C1216       C  0.76527214  0.96055747  0.78093686    -0.17700
C1217       C  0.76762872  0.94657676  0.76099716    -0.20000
C1218       C  0.77008791  0.95865686  0.73996638     0.20300
C1219       C  0.77442160  0.94484082  0.72008797    -0.33000
C1220       C  0.77712215  0.95713069  0.69915907     0.01000
C1221       C  0.77508273  0.98336144  0.69806689    -0.24300
C1222       C  0.76960902  0.03939104  0.77839294    -0.28900
C1223       C  0.76936200  0.02706056  0.79943388     0.06700
C1224       C  0.76628084  0.00094980  0.80030987    -0.27600
H1225       H  0.77124913  0.05803095  0.73615056     0.11400
H1226       H  0.77361651  0.03358243  0.70110758     0.12500
H1227       H  0.76404598  0.95077743  0.79699963     0.11600
H1228       H  0.76809069  0.92629809  0.76208280     0.10800
H1229       H  0.77627396  0.92460886  0.72091072     0.16200
H1230       H  0.77771995  0.99282540  0.68196400     0.12100
H1231       H  0.77254865  0.05950230  0.77779969     0.15000
H1232       H  0.76682696  0.99145435  0.81656072     0.14800
C1233       C  0.05195308  0.78477818  0.23233501    -0.18100
C1234       C  0.03846464  0.78404286  0.21208070    -0.20300
C1235       C  0.01448967  0.77327468  0.21142547     0.20400
C1236       C  0.00441785  0.76199456  0.23108597    -0.03200
C1237       C  0.01810576  0.76266606  0.25158192    -0.06300
C1238       C  0.04164144  0.77470661  0.25224792     0.20700
C1239       C  0.00760302  0.75265067  0.27164561     0.18800
C1240       C  0.98396054  0.74106709  0.27070010    -0.17700
C1241       C  0.97030435  0.74054718  0.25039360    -0.20000
C1242       C  0.98009039  0.75148785  0.23059859     0.20300
C1243       C  0.96549314  0.75354710  0.21075702    -0.33000
C1244       C  0.97509669  0.76605263  0.19163505     0.01000
C1245       C  0.99980581  0.77505873  0.19185933    -0.24300
C1246       C  0.05382533  0.77791526  0.27302538    -0.28900
C1247       C  0.04280626  0.76945276  0.29330521     0.06700
C1248       C  0.02023558  0.75582524  0.29244023    -0.27600
H1249       H  0.07003561  0.79396175  0.23259398     0.11400
H1250       H  0.04645651  0.79270436  0.19708134     0.12500
H1251       H  0.97562337  0.73316928  0.28586224     0.11600
H1252       H  0.95175347  0.73227464  0.25035150     0.10800
H1253       H  0.94623674  0.74704211  0.21069009     0.16200
H1254       H  0.00699188  0.78502318  0.17717055     0.12100
H1255       H  0.07128873  0.78824542  0.27360727     0.15000
H1256       H  0.01161900  0.74940940  0.30805199     0.14800
C1257       C  0.21284859  0.85393436  0.25527397    -0.18100
C1258       C  0.20399134  0.84525349  0.27620082    -0.20300
C1259       C  0.18245130  0.83016890  0.27733626     0.20400
C1260       C  0.17087651  0.82217758  0.25703906    -0.03200
C1261       C  0.18003228  0.83061635  0.23593695    -0.06300
C1262       C  0.20043089  0.84746118  0.23515612     0.20700
C1263       C  0.16743838  0.82386923  0.21577905     0.18800
C1264       C  0.14672072  0.80772256  0.21679482    -0.17700
C1265       C  0.13744943  0.79963997  0.23770085    -0.20000
C1266       C  0.14895201  0.80742816  0.25786644     0.20300
C1267       C  0.13774787  0.80233723  0.27878179    -0.33000
C1268       C  0.14805607  0.81188468  0.29887152     0.01000
C1269       C  0.17110371  0.82459424  0.29827744    -0.24300
C1270       C  0.20663990  0.85910114  0.21457478    -0.28900
C1271       C  0.19293259  0.85370776  0.19488224     0.06700
C1272       C  0.17441944  0.83507464  0.19525049    -0.27600
H1273       H  0.22873135  0.86659579  0.25491072     0.11400
H1274       H  0.21325208  0.85137505  0.29155860     0.12500
H1275       H  0.13690465  0.80232357  0.20147216     0.11600
H1276       H  0.12071316  0.78818632  0.23813677     0.10800
H1277       H  0.12006723  0.79237313  0.27936898     0.16200
H1278       H  0.17893485  0.83204559  0.31382013     0.12100
H1279       H  0.22091721  0.87357337  0.21413309     0.15000
H1280       H  0.16373957  0.83121361  0.18000203     0.14800
C1281       C  0.95076678  0.90322222  0.36677047    -0.18100
C1282       C  0.97501297  0.89316711  0.36609490    -0.20300
C1283       C  0.97911123  0.86772373  0.37103514     0.20400
C1284       C  0.95874929  0.85254519  0.37773818    -0.03200
C1285       C  0.93424154  0.86274019  0.37851863    -0.06300
C1286       C  0.93019534  0.88802907  0.37244467     0.20700
C1287       C  0.91368496  0.84733918  0.38435532     0.18800
C1288       C  0.91796433  0.82214469  0.39014361    -0.17700
C1289       C  0.94221945  0.81203909  0.38930557    -0.20000
C1290       C  0.96268475  0.82693470  0.38270399     0.20300
C1291       C  0.98675160  0.81642926  0.38003167    -0.33000
C1292       C  0.00692590  0.83113338  0.37216975     0.01000
C1293       C  0.00299983  0.85699184  0.36842723    -0.24300
C1294       C  0.90559180  0.89734316  0.37105447    -0.28900
C1295       C  0.88488247  0.88176589  0.37569425     0.06700
C1296       C  0.88915177  0.85704617  0.38320124    -0.27600
H1297       H  0.94802369  0.92273030  0.36224288     0.11400
H1298       H  0.99047473  0.90514115  0.36107608     0.12500
H1299       H  0.90244028  0.81004905  0.39473757     0.11600
H1300       H  0.94487293  0.79237694  0.39328831     0.10800
H1301       H  0.98946071  0.79655691  0.38303408     0.16200
H1302       H  0.01834853  0.86866953  0.36258683     0.12100
H1303       H  0.90249563  0.91647067  0.36545458     0.15000
H1304       H  0.87333214  0.84487122  0.38671195     0.14800
C1305       C  0.10276712  0.94718601  0.36286228    -0.18100
C1306       C  0.11326205  0.97117199  0.36181766    -0.20300
C1307       C  0.13850539  0.97499794  0.36757842     0.20400
C1308       C  0.15314128  0.95461811  0.37514914    -0.03200
C1309       C  0.14250617  0.93034760  0.37624650    -0.06300
C1310       C  0.11733115  0.92660845  0.36968983     0.20700
C1311       C  0.15731857  0.90971773  0.38300939     0.18800
C1312       C  0.18242244  0.91371002  0.38927027    -0.17700
C1313       C  0.19296155  0.93777006  0.38818177    -0.20000
C1314       C  0.17860356  0.95831548  0.38082031     0.20300
C1315       C  0.18944317  0.98225409  0.37822281    -0.33000
C1316       C  0.17517125  0.00247279  0.36977677     0.01000
C1317       C  0.14952852  0.99869082  0.36508814    -0.24300
C1318       C  0.10747478  0.90224832  0.36899846    -0.28900
C1319       C  0.12246106  0.88137771  0.37451551     0.06700
C1320       C  0.14712910  0.88537281  0.38232219    -0.27600
H1321       H  0.08339632  0.94463954  0.35781738     0.11400
H1322       H  0.10176154  0.98666015  0.35602018     0.12500
H1323       H  0.19409032  0.89811692  0.39452992     0.11600
H1324       H  0.21251442  0.94021132  0.39266067     0.10800
H1325       H  0.20920102  0.98485082  0.38184597     0.16200
H1326       H  0.13821716  0.01405770  0.35872193     0.12100
H1327       H  0.08843120  0.89944492  0.36308262     0.15000
H1328       H  0.15891948  0.86945522  0.38647877     0.14800
C1329       C  0.91402458  0.80502488  0.61925482    -0.18100
C1330       C  0.93820936  0.79471825  0.61980527    -0.20300
C1331       C  0.95943466  0.81031408  0.61936269     0.20400
C1332       C  0.95618120  0.83655499  0.61797528    -0.03200
C1333       C  0.93177119  0.84696852  0.61753191    -0.06300
C1334       C  0.91059730  0.83113030  0.61835923     0.20700
C1335       C  0.92859489  0.87326113  0.61707618     0.18800
C1336       C  0.94977213  0.88884347  0.61625037    -0.17700
C1337       C  0.97390263  0.87854346  0.61656277    -0.20000
C1338       C  0.97729914  0.85247523  0.61775294     0.20300
C1339       C  0.00143710  0.84216172  0.61943273    -0.33000
C1340       C  0.00494511  0.81607289  0.62147153     0.01000
C1341       C  0.98379180  0.80022202  0.62098252    -0.24300
C1342       C  0.88644717  0.84171135  0.61927023    -0.28900
C1343       C  0.88321629  0.86793752  0.62006204     0.06700
C1344       C  0.90438322  0.88355397  0.61842618    -0.27600
H1345       H  0.89798216  0.79257490  0.61997135     0.11400
H1346       H  0.94030375  0.77454427  0.62090319     0.12500
H1347       H  0.94768026  0.90904775  0.61580745     0.11600
H1348       H  0.98993990  0.89102080  0.61631997     0.10800
H1349       H  0.01752330  0.85459025  0.61978657     0.16200
H1350       H  0.98619242  0.78013473  0.62279438     0.12100
H1351       H  0.87026307  0.82951297  0.62080279     0.15000
H1352       H  0.90204739  0.90374084  0.61899998     0.14800
C1353       C  0.11122963  0.96033004  0.63182152    -0.18100
C1354       C  0.10125685  0.93611757  0.63193070    -0.20300
C1355       C  0.11565449  0.91576509  0.62439262     0.20400
C1356       C  0.14014219  0.91991400  0.61607021    -0.03200
C1357       C  0.15031694  0.94443122  0.61611922    -0.06300
C1358       C  0.13582647  0.96460968  0.62427579     0.20700
C1359       C  0.17519318  0.94861137  0.60877591     0.18800
C1360       C  0.18933800  0.92824086  0.60070013    -0.17700
C1361       C  0.17919231  0.90394418  0.60050582    -0.20000
C1362       C  0.15472646  0.89949370  0.60847591     0.20300
C1363       C  0.14491480  0.87496781  0.60985302    -0.33000
C1364       C  0.12090414  0.87064571  0.61919289     0.01000
C1365       C  0.10625912  0.89127644  0.62588012    -0.24300
C1366       C  0.14639848  0.98859329  0.62562783    -0.28900
C1367       C  0.17158907  0.99291498  0.61947173     0.06700
C1368       C  0.18570469  0.97284842  0.61047179    -0.27600
H1369       H  0.09986561  0.97565990  0.63812928     0.11400
H1370       H  0.08240920  0.93324659  0.63831917     0.12500
H1371       H  0.20843123  0.93101657  0.59490995     0.11600
H1372       H  0.19069573  0.88854169  0.59456671     0.10800
H1373       H  0.15646248  0.85919730  0.60481089     0.16200
H1374       H  0.08773936  0.88819977  0.63297448     0.12100
H1375       H  0.13516606  0.00374361  0.63248019     0.15000
H1376       H  0.20511319  0.97581170  0.60568830     0.14800
C1377       C  0.04687811  0.76669386  0.50805887    -0.18100
C1378       C  0.04673008  0.76828511  0.48433125    -0.20300
C1379       C  0.06897466  0.77320159  0.47231843     0.20400
C1380       C  0.09158544  0.77635859  0.48441446    -0.03200
C1381       C  0.09175630  0.77463545  0.50832529    -0.06300
C1382       C  0.06928841  0.76991332  0.52024087     0.20700
C1383       C  0.11442813  0.77786660  0.52028716     0.18800
C1384       C  0.13669760  0.78252950  0.50834319    -0.17700
C1385       C  0.13651566  0.78431332  0.48474071    -0.20000
C1386       C  0.11407114  0.78139836  0.47265275     0.20300
C1387       C  0.11383081  0.78351364  0.44900564    -0.33000
C1388       C  0.09147068  0.78044824  0.43666050     0.01000
C1389       C  0.06906383  0.77512019  0.44849077    -0.24300
C1390       C  0.06963520  0.76878452  0.54408602    -0.28900
C1391       C  0.09219429  0.77241840  0.55617040     0.06700
C1392       C  0.11449496  0.77669617  0.54399714    -0.27600
H1393       H  0.02942790  0.76303760  0.51688859     0.11400
H1394       H  0.02917358  0.76578976  0.47538166     0.12500
H1395       H  0.15426854  0.78499011  0.51728181     0.11600
H1396       H  0.15395405  0.78808917  0.47593084     0.10800
H1397       H  0.13125559  0.78735962  0.44017932     0.16200
H1398       H  0.05170009  0.77269692  0.43921149     0.12100
H1399       H  0.05229208  0.76546788  0.55320466     0.15000
H1400       H  0.13201078  0.77939066  0.55298355     0.14800
C1401       C  0.05108741  0.74832792  0.75627322    -0.18100
C1402       C  0.03828286  0.74930684  0.77696699    -0.20300
C1403       C  0.01213139  0.75236585  0.77750834     0.20400
C1404       C  0.99862595  0.75351573  0.75694564    -0.03200
C1405       C  0.01153613  0.75238149  0.73605407    -0.06300
C1406       C  0.03796197  0.75030680  0.73574929     0.20700
C1407       C  0.99815399  0.75485152  0.71553191     0.18800
C1408       C  0.97195880  0.75749276  0.71603848    -0.17700
C1409       C  0.95919041  0.75870749  0.73672298    -0.20000
C1410       C  0.97239200  0.75722620  0.75724086     0.20300
C1411       C  0.96005195  0.76074680  0.77799755    -0.33000
C1412       C  0.97354535  0.76046566  0.79841036     0.01000
C1413       C  0.99942831  0.75567310  0.79816720    -0.24300
C1414       C  0.05086306  0.75187625  0.71503336    -0.28900
C1415       C  0.03764874  0.75554048  0.69474819     0.06700
C1416       C  0.01133381  0.75627851  0.69498343    -0.27600
H1417       H  0.07135893  0.74673130  0.75633913     0.11400
H1418       H  0.04892828  0.74840154  0.79256917     0.12500
H1419       H  0.96142715  0.75940100  0.70044521     0.11600
H1420       H  0.93904897  0.76149611  0.73667221     0.10800
H1421       H  0.94014366  0.76496473  0.77825622     0.16200
H1422       H  0.00985550  0.75610409  0.81392398     0.12100
H1423       H  0.07121482  0.75201123  0.71481740     0.15000
H1424       H  0.00127584  0.75980074  0.67933569     0.14800
C1425       C  0.20033055  0.86078877  0.73633411    -0.18100
C1426       C  0.19129083  0.85160123  0.71574526    -0.20300
C1427       C  0.17404224  0.83174686  0.71539412     0.20400
C1428       C  0.16674713  0.82020832  0.73594237    -0.03200
C1429       C  0.17622744  0.82918663  0.75670310    -0.06300
C1430       C  0.19247971  0.85006425  0.75686515     0.20700
C1431       C  0.16816893  0.81833876  0.77733471     0.18800
C1432       C  0.15144475  0.79802914  0.77692881    -0.17700
C1433       C  0.14171681  0.78940549  0.75636116    -0.20000
C1434       C  0.14878892  0.80076819  0.73585986     0.20300
C1435       C  0.13714093  0.79411512  0.71545175    -0.33000
C1436       C  0.14359433  0.80632195  0.69515265     0.01000
C1437       C  0.16277314  0.82431251  0.69503104    -0.24300
C1438       C  0.19924447  0.86088605  0.77754506    -0.28900
C1439       C  0.19015525  0.85100840  0.79801512     0.06700
C1440       C  0.17559379  0.82910965  0.79796100    -0.27600
H1441       H  0.21287805  0.87676499  0.73622946     0.11400
H1442       H  0.19706501  0.86064959  0.70014156     0.12500
H1443       H  0.14511814  0.78945697  0.79257535     0.11600
H1444       H  0.12807442  0.77434392  0.75654644     0.10800
H1445       H  0.12224902  0.78025476  0.71545915     0.16200
H1446       H  0.16742898  0.83393982  0.67938527     0.12100
H1447       H  0.21038021  0.87790110  0.77772597     0.15000
H1448       H  0.16830081  0.82181468  0.81381093     0.14800
C1449       C  0.80069318  0.13667437  0.25494065    -0.18100
C1450       C  0.81007466  0.14472220  0.27579161    -0.20300
C1451       C  0.82951129  0.16241832  0.27663929     0.20400
C1452       C  0.83836997  0.17345397  0.25636493    -0.03200
C1453       C  0.82851464  0.16574189  0.23535938    -0.06300
C1454       C  0.81036911  0.14649196  0.23467627     0.20700
C1455       C  0.83832158  0.17576826  0.21500983     0.18800
C1456       C  0.85683085  0.19443937  0.21593028    -0.17700
C1457       C  0.86693488  0.20174265  0.23674796    -0.20000
C1458       C  0.85841464  0.19072903  0.25694059     0.20300
C1459       C  0.87066601  0.19533722  0.27748143    -0.33000
C1460       C  0.86275987  0.18330239  0.29740528     0.01000
C1461       C  0.84147007  0.16789151  0.29717569    -0.24300
C1462       C  0.80381387  0.13596642  0.21382167    -0.28900
C1463       C  0.81499592  0.14459935  0.19375796     0.06700
C1464       C  0.83106055  0.16539661  0.19420091    -0.27600
H1465       H  0.78660906  0.12202830  0.25464167     0.11400
H1466       H  0.80299343  0.13619351  0.29119357     0.12500
H1467       H  0.86441257  0.20244466  0.20049845     0.11600
H1468       H  0.88210661  0.21526731  0.23697939     0.10800
H1469       H  0.88706755  0.20737062  0.27785021     0.16200
H1470       H  0.83556779  0.15856590  0.31262731     0.12100
H1471       H  0.79142752  0.11983830  0.21329162     0.15000
H1472       H  0.83980811  0.17177428  0.17863276     0.14800
C1473       C  0.04714003  0.24076627  0.25561818    -0.18100
C1474       C  0.03412006  0.23929383  0.27615232    -0.20300
C1475       C  0.00788029  0.23725971  0.27637568     0.20400
C1476       C  0.99450172  0.23787621  0.25573080    -0.03200
C1477       C  0.00763576  0.23975287  0.23499993    -0.06300
C1478       C  0.03412118  0.24047607  0.23497491     0.20700
C1479       C  0.99437803  0.23920944  0.21429603     0.18800
C1480       C  0.96807082  0.23778731  0.21455935    -0.17700
C1481       C  0.95507418  0.23563819  0.23509549    -0.20000
C1482       C  0.96814795  0.23509161  0.25572105     0.20300
C1483       C  0.95555923  0.23046797  0.27621602    -0.33000
C1484       C  0.96896905  0.22906567  0.29664168     0.01000
C1485       C  0.99493587  0.23320236  0.29675757    -0.24300
C1486       C  0.04714446  0.23907204  0.21436168    -0.28900
C1487       C  0.03406171  0.23712598  0.19382431     0.06700
C1488       C  0.00773358  0.23822875  0.19377012    -0.27600
H1489       H  0.06746252  0.24136627  0.25586986     0.11400
H1490       H  0.04464321  0.23886333  0.29183842     0.12500
H1491       H  0.95760419  0.23739208  0.19884667     0.11600
H1492       H  0.93483677  0.23367259  0.23480353     0.10800
H1493       H  0.93551752  0.22693551  0.27622219     0.16200
H1494       H  0.00522118  0.23161894  0.31253676     0.12100
H1495       H  0.06745107  0.23765123  0.21435252     0.15000
H1496       H  0.99769615  0.23603527  0.17793133     0.14800
C1497       C  0.05821061  0.09479256  0.36960311    -0.18100
C1498       C  0.03386308  0.10463055  0.37036817    -0.20300
C1499       C  0.02998035  0.13055535  0.37263695     0.20400
C1500       C  0.05080523  0.14661371  0.37511539    -0.03200
C1501       C  0.07538492  0.13665086  0.37456982    -0.06300
C1502       C  0.07911341  0.11068090  0.37127355     0.20700
C1503       C  0.09621360  0.15281319  0.37645050     0.18800
C1504       C  0.09233149  0.17866072  0.37922853    -0.17700
C1505       C  0.06801340  0.18853940  0.37956023    -0.20000
C1506       C  0.04713194  0.17273106  0.37723851     0.20300
C1507       C  0.02276051  0.18269947  0.37598833    -0.33000
C1508       C  0.00197084  0.16694438  0.37230615     0.01000
C1509       C  0.00573636  0.14078700  0.37141429    -0.24300
C1510       C  0.10362054  0.10123234  0.36890077    -0.28900
C1511       C  0.12444113  0.11737147  0.37025015     0.06700
C1512       C  0.12055394  0.14301155  0.37465179    -0.27600
H1513       H  0.06069078  0.07480024  0.36724744     0.11400
H1514       H  0.01806408  0.09201495  0.36856387     0.12500
H1515       H  0.10813994  0.19132688  0.38065258     0.11600
H1516       H  0.06555901  0.20862310  0.38120287     0.10800
H1517       H  0.02016860  0.20284569  0.37665963     0.16200
H1518       H  0.98989086  0.12840731  0.36873992     0.12100
H1519       H  0.10649211  0.08146201  0.36551556     0.15000
H1520       H  0.13648038  0.15562746  0.37540634     0.14800
C1521       C  0.89566291  0.02700507  0.37233807    -0.18100
C1522       C  0.90597847  0.05108187  0.37219288    -0.20300
C1523       C  0.89068031  0.07210379  0.37573872     0.20400
C1524       C  0.86488254  0.06879501  0.38034714    -0.03200
C1525       C  0.85440846  0.04446298  0.38027957    -0.06300
C1526       C  0.86986122  0.02356757  0.37593720     0.20700
C1527       C  0.82836972  0.04114937  0.38360672     0.18800
C1528       C  0.81323729  0.06218372  0.38787696    -0.01700
C1529       C  0.82365755  0.08630130  0.38815839    -0.20000
C1530       C  0.84936491  0.08984040  0.38398881     0.20300
C1531       C  0.85957816  0.11404870  0.38217816    -0.33000
C1532       C  0.88489778  0.11742873  0.37600805     0.01000
C1533       C  0.90048977  0.09637066  0.37357674    -0.24300
C1534       C  0.85916068  0.99968138  0.37430308    -0.28900
C1535       C  0.83304080  0.99622321  0.37641984     0.06700
C1536       C  0.81782860  0.01703293  0.38168119    -0.27600
H1537       H  0.90777342  0.01110073  0.36902773     0.11400
H1538       H  0.92582543  0.05329782  0.36874331     0.12500
H1539       H  0.79323898  0.06003777  0.39054021     0.11600
H1540       H  0.81146717  0.10225256  0.39100781     0.10800
H1541       H  0.84741029  0.13021928  0.38399031     0.16200
H1542       H  0.92004756  0.09887764  0.36903264     0.12100
H1543       H  0.87118653  0.98388525  0.37033587     0.15000
H1544       H  0.79770704  0.01468570  0.38326300     0.14800
C1545       C  0.05577815  0.09002020  0.63957822    -0.18100
C1546       C  0.03156464  0.10006506  0.63960833    -0.20300
C1547       C  0.02687525  0.12358375  0.62979223     0.20400
C1548       C  0.04660307  0.13684093  0.61929749    -0.03200
C1549       C  0.07108662  0.12661984  0.61917187    -0.06300
C1550       C  0.07569839  0.10328382  0.62966354     0.20700
C1551       C  0.09105978  0.14012017  0.60926187     0.18800
C1552       C  0.08618526  0.16342841  0.59904813    -0.17700
C1553       C  0.06192970  0.17360869  0.59925884    -0.20000
C1554       C  0.04205797  0.16065265  0.60963906     0.20300
C1555       C  0.01800206  0.17145764  0.61131738    -0.33000
C1556       C  0.99845847  0.15873332  0.62260233     0.01000
C1557       C  0.00299637  0.13443488  0.63112001    -0.24300
C1558       C  0.10026537  0.09400471  0.63083851    -0.28900
C1559       C  0.12054235  0.10777456  0.62188415     0.06700
C1560       C  0.11564537  0.13053366  0.61052692    -0.27600
H1561       H  0.05900918  0.07206544  0.64768899     0.11400
H1562       H  0.01659168  0.08965944  0.64774293     0.12500
H1563       H  0.10125238  0.17405222  0.59130286     0.11600
H1564       H  0.05881850  0.19186042  0.59167723     0.10800
H1565       H  0.01480291  0.19012824  0.60463828     0.16200
H1566       H  0.98820127  0.12428128  0.63977915     0.12100
H1567       H  0.10367865  0.07639768  0.63951311     0.15000
H1568       H  0.13106396  0.14137393  0.60362192     0.14800
C1569       C  0.83277094  0.07428586  0.59836285    -0.18100
C1570       C  0.82316792  0.04982618  0.59831477    -0.20300
C1571       C  0.83593590  0.03039621  0.60951570     0.20400
C1572       C  0.85901143  0.03556922  0.62026142    -0.03200
C1573       C  0.86860030  0.06024485  0.62044862    -0.06300
C1574       C  0.85526734  0.07977785  0.60968515     0.20700
C1575       C  0.89109091  0.06548805  0.63209693     0.18800
C1576       C  0.90423780  0.04600349  0.64277873    -0.17700
C1577       C  0.89484677  0.02157542  0.64245832    -0.20000
C1578       C  0.87209205  0.01628056  0.63155885     0.20300
C1579       C  0.86171711  0.99224320  0.63266663    -0.33000
C1580       C  0.83801406  0.98715587  0.62320270     0.01000
C1581       C  0.82556939  0.00618212  0.61101492    -0.24300
C1582       C  0.86420417  0.10453846  0.61115526    -0.28900
C1583       C  0.88605985  0.11000237  0.62360589     0.06700
C1584       C  0.89964524  0.09023373  0.63355808    -0.27600
H1585       H  0.82230709  0.08902136  0.58995562     0.11400
H1586       H  0.80548590  0.04621291  0.58989704     0.12500
H1587       H  0.92156399  0.04973969  0.65174411     0.11600
H1588       H  0.90509337  0.00692243  0.65120358     0.10800
H1589       H  0.87165704  0.97778767  0.64196783     0.16200
H1590       H  0.80735406  0.00250306  0.60358943     0.12100
H1591       H  0.85353566  0.11964526  0.60351222     0.15000
H1592       H  0.91659554  0.09418244  0.64304347     0.14800
C1593       C  0.95459932  0.23165723  0.48471402    -0.18100
C1594       C  0.95442194  0.23044411  0.50838006    -0.20300
C1595       C  0.93451850  0.21877703  0.51986704     0.20400
C1596       C  0.91462683  0.20815878  0.50742058    -0.03200
C1597       C  0.91478307  0.20942394  0.48355748    -0.06300
C1598       C  0.93485301  0.22125885  0.47215197     0.20700
C1599       C  0.89481268  0.19891815  0.47114285     0.18800
C1600       C  0.87502587  0.18704539  0.48259971    -0.17700
C1601       C  0.87487208  0.18579354  0.50624400    -0.20000
C1602       C  0.89451110  0.19638600  0.51880175     0.20300
C1603       C  0.89430138  0.19552526  0.54253227    -0.33000
C1604       C  0.91398920  0.20621459  0.55509909     0.01000
C1605       C  0.93410337  0.21768000  0.54357900    -0.24300
C1606       C  0.93478753  0.22252705  0.44841112    -0.28900
C1607       C  0.91479886  0.21227672  0.43593446     0.06700
C1608       C  0.89492216  0.20047361  0.44748585    -0.27600
H1609       H  0.97015335  0.24079602  0.47623764     0.11400
H1610       H  0.96983981  0.23868719  0.51770925     0.12500
H1611       H  0.85960529  0.17880572  0.47326870     0.11600
H1612       H  0.85933133  0.17662582  0.51471545     0.10800
H1613       H  0.87876564  0.18655008  0.55119739     0.16200
H1614       H  0.94935783  0.22603693  0.55305693     0.12100
H1615       H  0.95021835  0.23160496  0.43968193     0.15000
H1616       H  0.87954959  0.19225159  0.43806120     0.14800
C1617       C  0.97699151  0.24194217  0.77371016    -0.18100
C1618       C  0.96307937  0.24229745  0.75360472    -0.20300
C1619       C  0.97463751  0.23701142  0.73278409     0.20400
C1620       C  0.00073931  0.23246244  0.73207766    -0.03200
C1621       C  0.01469698  0.23168756  0.75241005    -0.06300
C1622       C  0.00265851  0.23601598  0.77337753     0.20700
C1623       C  0.04032062  0.22501719  0.75185992     0.18800
C1624       C  0.05212976  0.22074748  0.73095689    -0.17700
C1625       C  0.03839202  0.22184238  0.71080189    -0.20000
C1626       C  0.01257766  0.22701226  0.71124344     0.20300
C1627       C  0.99809388  0.22507532  0.69149265    -0.33000
C1628       C  0.97192883  0.22783224  0.69245280     0.01000
C1629       C  0.96034663  0.23449400  0.71293129    -0.24300
C1630       C  0.01609674  0.23277054  0.79367258    -0.28900
C1631       C  0.04107285  0.22434434  0.79319246     0.06700
C1632       C  0.05326914  0.22122789  0.77225694    -0.27600
H1633       H  0.96746027  0.24536606  0.78961889     0.11400
H1634       H  0.94309626  0.24595519  0.75443147     0.12500
H1635       H  0.07183042  0.21577906  0.73025048     0.11600
H1636       H  0.04776267  0.21768285  0.69495183     0.10800
H1637       H  0.00685773  0.21933252  0.67574081     0.16200
H1638       H  0.94007391  0.23609377  0.71366290     0.12100
H1639       H  0.00658723  0.23481695  0.80980479     0.15000
H1640       H  0.07253250  0.21466894  0.77190272     0.14800
C1641       C  0.80127210  0.12583006  0.73482115    -0.18100
C1642       C  0.80991783  0.13533918  0.71416366    -0.20300
C1643       C  0.82666366  0.15562365  0.71371767     0.20400
C1644       C  0.83323511  0.16770332  0.73415451    -0.03200
C1645       C  0.82413793  0.15840718  0.75495920    -0.06300
C1646       C  0.80903392  0.13668831  0.75528063     0.20700
C1647       C  0.83192295  0.16953591  0.77549410     0.18800
C1648       C  0.84742446  0.19078017  0.77495116    -0.17700
C1649       C  0.85684035  0.19968693  0.75434476    -0.20000
C1650       C  0.85059729  0.18768352  0.73398977     0.20300
C1651       C  0.86291469  0.19390844  0.71378657    -0.33000
C1652       C  0.85773733  0.18067984  0.69380393     0.01000
C1653       C  0.83858491  0.16264857  0.69351140    -0.24300
C1654       C  0.80373245  0.12503360  0.77598680    -0.28900
C1655       C  0.81323406  0.13491086  0.79628359     0.06700
C1656       C  0.82589974  0.15795850  0.79613980    -0.27600
H1657       H  0.78944881  0.10931727  0.73483216     0.11400
H1658       H  0.80456549  0.12598083  0.69861854     0.12500
H1659       H  0.85337890  0.19965879  0.79053317     0.11600
H1660       H  0.86989081  0.21526524  0.75443039     0.10800
H1661       H  0.87766352  0.20792006  0.71385559     0.16200
H1662       H  0.83479360  0.15236941  0.67804888     0.12100
H1663       H  0.79365273  0.10737371  0.77622718     0.15000
H1664       H  0.83320120  0.16551031  0.81184592     0.14800
C1665       C  0.34221656  0.13222499  0.60125157    -0.18100
C1666       C  0.36128354  0.15033620  0.60167926    -0.20300
C1667       C  0.36269443  0.16777370  0.61943961     0.20400
C1668       C  0.34523831  0.16625400  0.63741829    -0.03200
C1669       C  0.32593673  0.14802384  0.63694792    -0.06300
C1670       C  0.32413020  0.13120980  0.61854911     0.20700
C1671       C  0.30764241  0.14757609  0.65424895     0.18800
C1672       C  0.30955913  0.16434200  0.67246423    -0.17700
C1673       C  0.32864126  0.18233913  0.67293869    -0.20000
C1674       C  0.34612816  0.18389137  0.65519992     0.20300
C1675       C  0.36341680  0.20371545  0.65420461    -0.33000
C1676       C  0.37993538  0.20616972  0.63574672     0.01000
C1677       C  0.38018228  0.18760753  0.61885405    -0.24300
C1678       C  0.30355088  0.11467042  0.61718367    -0.28900
C1679       C  0.28448240  0.11534442  0.63365255     0.06700
C1680       C  0.28701377  0.13135429  0.65241094    -0.27600
H1681       H  0.34118226  0.11947853  0.58701390     0.11400
H1682       H  0.37450384  0.15116488  0.58774796     0.12500
H1683       H  0.29579919  0.16408378  0.68598489     0.11600
H1684       H  0.32919284  0.19561340  0.68680396     0.10800
H1685       H  0.36304764  0.21815661  0.66711841     0.16200
H1686       H  0.39256816  0.18972074  0.60439918     0.12100
H1687       H  0.30147981  0.10255160  0.60258030     0.15000
H1688       H  0.27229954  0.13189675  0.66510694     0.14800
C1689       C  0.32850631  0.19529471  0.31928511    -0.18100
C1690       C  0.31038829  0.17634363  0.31921675    -0.20300
C1691       C  0.30924353  0.15888385  0.33699846     0.20400
C1692       C  0.32733495  0.15967368  0.35442168    -0.03200
C1693       C  0.34567485  0.17882121  0.35447388    -0.06300
C1694       C  0.34576752  0.19708784  0.33713611     0.20700
C1695       C  0.36302018  0.18047095  0.37248219     0.18800
C1696       C  0.36239120  0.16242347  0.38982376    -0.17700
C1697       C  0.34415029  0.14350143  0.38981931    -0.20000
C1698       C  0.32624009  0.14221250  0.37243226     0.20300
C1699       C  0.30645622  0.12473292  0.37335508    -0.33000
C1700       C  0.28759308  0.12498867  0.35674946     0.01000
C1701       C  0.28948767  0.14160398  0.33833352    -0.24300
C1702       C  0.36217769  0.21756315  0.33858711    -0.28900
C1703       C  0.37867601  0.21995954  0.35701388     0.06700
C1704       C  0.37973501  0.20086847  0.37344109    -0.27600
H1705       H  0.32849644  0.20903763  0.30574365     0.11400
H1706       H  0.29674959  0.17584249  0.30562803     0.12500
H1707       H  0.37556026  0.16337181  0.40376365     0.11600
H1708       H  0.34363678  0.13027145  0.40375931     0.10800
H1709       H  0.30474159  0.11219875  0.38775242     0.16200
H1710       H  0.27479224  0.14189390  0.32563599     0.12100
H1711       H  0.36145079  0.23222053  0.32584252     0.15000
H1712       H  0.39232065  0.20279328  0.38774958     0.14800
C1713       C  0.45747090  0.26454763  0.50739269    -0.18100
C1714       C  0.45761031  0.26661105  0.48377859    -0.20300
C1715       C  0.43549411  0.27243774  0.47199868     0.20400
C1716       C  0.41293434  0.27590467  0.48405175    -0.03200
C1717       C  0.41279127  0.27379453  0.50790517    -0.06300
C1718       C  0.43521534  0.26827834  0.51963510     0.20700
C1719       C  0.39030346  0.27754017  0.52000832     0.18800
C1720       C  0.36809642  0.28293536  0.50818018    -0.17700
C1721       C  0.36823996  0.28501741  0.48454295    -0.20000
C1722       C  0.39058729  0.28171476  0.47231346     0.20300
C1723       C  0.39100909  0.28419705  0.44859936    -0.33000
C1724       C  0.41350896  0.28089040  0.43644545     0.01000
C1725       C  0.43563062  0.27494596  0.44838246    -0.24300
C1726       C  0.43510743  0.26703968  0.54339670    -0.28900
C1727       C  0.41289193  0.27142558  0.55566321     0.06700
C1728       C  0.39048501  0.27627951  0.54373746    -0.27600
H1729       H  0.47483826  0.26024566  0.51609951     0.11400
H1730       H  0.47507830  0.26381072  0.47472879     0.12500
H1731       H  0.35063924  0.28578411  0.51723564     0.11600
H1732       H  0.35088859  0.28938070  0.47583804     0.10800
H1733       H  0.37383042  0.28865461  0.43964415     0.16200
H1734       H  0.45311201  0.27226416  0.43931083     0.12100
H1735       H  0.45245594  0.26322229  0.55232948     0.15000
H1736       H  0.37316495  0.27949174  0.55292095     0.14800
C1737       C  0.16425222  0.62986612  0.60477084    -0.18100
C1738       C  0.14539669  0.64823037  0.60576818    -0.20300
C1739       C  0.14737960  0.66853816  0.62080435     0.20400
C1740       C  0.16825931  0.66983142  0.63547925    -0.03200
C1741       C  0.18726654  0.65135492  0.63445486    -0.06300
C1742       C  0.18548703  0.63142630  0.61878886     0.20700
C1743       C  0.20855733  0.65344916  0.64849205     0.18800
C1744       C  0.21034301  0.67329820  0.66394946    -0.17700
C1745       C  0.19157942  0.69152246  0.66496793    -0.20000
C1746       C  0.17074856  0.69019616  0.65052860     0.20300
C1747       C  0.15307354  0.70958135  0.65012519    -0.33000
C1748       C  0.13294881  0.70924671  0.63474115     0.01000
C1749       C  0.12962352  0.68820079  0.62067903    -0.24300
C1750       C  0.20544177  0.61412907  0.61682690    -0.28900
C1751       C  0.22720831  0.61701690  0.63006153     0.06700
C1752       C  0.22823759  0.63631014  0.64621867    -0.27600
H1753       H  0.16248337  0.61473359  0.59265858     0.11400
H1754       H  0.12953071  0.64685331  0.59438448     0.12500
H1755       H  0.22656499  0.67506754  0.67487879     0.11600
H1756       H  0.19369031  0.70702969  0.67664929     0.10800
H1757       H  0.15564049  0.72565851  0.66111616     0.16200
H1758       H  0.11426274  0.68792071  0.60866611     0.12100
H1759       H  0.20465286  0.59939406  0.60422483     0.15000
H1760       H  0.24490291  0.63849109  0.65656638     0.14800
C1761       C  0.40654140  0.43475540  0.61701995    -0.18100
C1762       C  0.39678932  0.45907865  0.61637865    -0.20300
C1763       C  0.37105167  0.46301934  0.61287694     0.20400
C1764       C  0.35516359  0.44236503  0.60885402    -0.03200
C1765       C  0.36504230  0.41779645  0.60937224    -0.06300
C1766       C  0.39073172  0.41399842  0.61406533     0.20700
C1767       C  0.34899420  0.39703058  0.60635971     0.18800
C1768       C  0.32340424  0.40106158  0.60205069    -0.17700
C1769       C  0.31359398  0.42541482  0.60164652    -0.20000
C1770       C  0.32921259  0.44615833  0.60549442     0.20300
C1771       C  0.31914834  0.47042947  0.60734158    -0.33000
C1772       C  0.33466525  0.49085673  0.61292264     0.01000
C1773       C  0.36075122  0.48710114  0.61464545    -0.24300
C1774       C  0.39991138  0.38955489  0.61687893    -0.28900
C1775       C  0.38378865  0.36880221  0.61503115     0.06700
C1776       C  0.35855660  0.37264061  0.60889026    -0.27600
H1777       H  0.42633337  0.43215559  0.62048475     0.11400
H1778       H  0.40924781  0.47477297  0.61937842     0.12500
H1779       H  0.31082586  0.38533630  0.59965575     0.11600
H1780       H  0.29364849  0.42797415  0.59896825     0.10800
H1781       H  0.29905175  0.47310175  0.60590055     0.16200
H1782       H  0.37295340  0.50273931  0.61863867     0.12100
H1783       H  0.41940967  0.38671346  0.62144335     0.15000
H1784       H  0.34597349  0.35674459  0.60756941     0.14800
C1785       C  0.18845179  0.70433963  0.32391751    -0.18100
C1786       C  0.20737705  0.68625187  0.32344846    -0.20300
C1787       C  0.20576131  0.66485269  0.33720816     0.20400
C1788       C  0.18447356  0.66115034  0.35103423    -0.03200
C1789       C  0.16529787  0.67953880  0.35155707    -0.06300
C1790       C  0.16762345  0.70136593  0.33819704     0.20700
C1791       C  0.14445969  0.67667503  0.36616798     0.18800
C1792       C  0.14268174  0.65486587  0.37949738    -0.17700
C1793       C  0.16168435  0.63658021  0.37893250    -0.20000
C1794       C  0.18291301  0.63969870  0.36504738     0.20300
C1795       C  0.20312983  0.62250001  0.36567332    -0.33000
C1796       C  0.22494438  0.62694476  0.35275372     0.01000
C1797       C  0.22566995  0.64776991  0.33812628    -0.24300
C1798       C  0.14983690  0.72052089  0.34018306    -0.28900
C1799       C  0.12978115  0.71861215  0.35556333     0.06700
C1800       C  0.12660282  0.69624105  0.36798729    -0.27600
H1801       H  0.19044826  0.72101324  0.31355283     0.11400
H1802       H  0.22360226  0.68931198  0.31272225     0.12500
H1803       H  0.12687130  0.65221785  0.39079265     0.11600
H1804       H  0.16005489  0.62026869  0.38979706     0.10800
H1805       H  0.20256905  0.60667308  0.37720440     0.16200
H1806       H  0.24239020  0.65128664  0.32811869     0.12100
H1807       H  0.15233030  0.73770053  0.33056148     0.15000
H1808       H  0.11134325  0.69476963  0.38006061     0.14800
C1809       C  0.32057382  0.43901907  0.38816584    -0.18100
C1810       C  0.33114553  0.41498288  0.38962999    -0.20300
C1811       C  0.35553107  0.41042432  0.38158352     0.20400
C1812       C  0.36967135  0.43051123  0.37264088    -0.03200
C1813       C  0.35905556  0.45477300  0.37128222    -0.06300
C1814       C  0.33422088  0.45900767  0.37872875     0.20700
C1815       C  0.37305111  0.47459180  0.36179153     0.18800
C1816       C  0.39762152  0.47023633  0.35418095    -0.17700
C1817       C  0.40804552  0.44623425  0.35537494    -0.20000
C1818       C  0.39410059  0.42620516  0.36426473     0.20300
C1819       C  0.40376831  0.40178326  0.36395231    -0.33000
C1820       C  0.38935111  0.38141119  0.37173376     0.01000
C1821       C  0.36558166  0.38600005  0.38132163    -0.24300
C1822       C  0.32328998  0.48292326  0.37599843    -0.28900
C1823       C  0.33696754  0.50265693  0.36596033     0.06700
C1824       C  0.36205810  0.49828737  0.35940802    -0.27600
H1825       H  0.30153850  0.44187318  0.39407338     0.11400
H1826       H  0.32001223  0.39981894  0.39659126     0.12500
H1827       H  0.40861468  0.48530738  0.34687136     0.11600
H1828       H  0.42684488  0.44323711  0.34891810     0.10800
H1829       H  0.42218474  0.39848672  0.35672111     0.16200
H1830       H  0.35429031  0.37041708  0.38726595     0.12100
H1831       H  0.30399874  0.48595686  0.38112101     0.15000
H1832       H  0.37296104  0.51317582  0.35167918     0.14800
C1833       C  0.28171616  0.53880532  0.47817942    -0.18100
C1834       C  0.28279716  0.53756230  0.50183039    -0.20300
C1835       C  0.28643981  0.55938805  0.51466116     0.20400
C1836       C  0.28890514  0.58271727  0.50356834    -0.03200
C1837       C  0.28774520  0.58397955  0.47972978    -0.06300
C1838       C  0.28424829  0.56189985  0.46697168     0.20700
C1839       C  0.29033079  0.60730849  0.46867918     0.18800
C1840       C  0.29373324  0.62917027  0.48148881    -0.17700
C1841       C  0.29491740  0.62791589  0.50510111    -0.20000
C1842       C  0.29265471  0.60478497  0.51627028     0.20300
C1843       C  0.29402252  0.60337631  0.53992159    -0.33000
C1844       C  0.29142356  0.58022575  0.55115618     0.01000
C1845       C  0.28763347  0.55830204  0.53837317    -0.24300
C1846       C  0.28374093  0.56326282  0.44324101    -0.28900
C1847       C  0.28691980  0.58640770  0.43209678     0.06700
C1848       C  0.28986584  0.60836399  0.44500091    -0.27600
H1849       H  0.27902578  0.52167578  0.46864489     0.11400
H1850       H  0.28086086  0.51950437  0.51008903     0.12500
H1851       H  0.29567817  0.64722890  0.47323082     0.11600
H1852       H  0.29769701  0.64503686  0.51462812     0.10800
H1853       H  0.29677313  0.62041354  0.54959494     0.16200
H1854       H  0.28568366  0.54036412  0.54686020     0.12100
H1855       H  0.28144948  0.54622693  0.43346977     0.15000
H1856       H  0.29210132  0.62632962  0.43661938     0.14800
C1857       C  0.70001609  0.81531214  0.66916025    -0.18100
C1858       C  0.68243633  0.79598465  0.66793603    -0.20300
C1859       C  0.66409427  0.79602653  0.65093463     0.20400
C1860       C  0.66277933  0.81618863  0.63547386    -0.03200
C1861       C  0.68064583  0.83575766  0.63667892    -0.06300
C1862       C  0.69957684  0.83496479  0.65336720     0.20700
C1863       C  0.68045495  0.85528842  0.62047202     0.18800
C1864       C  0.66162900  0.85553835  0.60380863    -0.17700
C1865       C  0.64379456  0.83618378  0.60269542    -0.20000
C1866       C  0.64445261  0.81613263  0.61818355     0.20300
C1867       C  0.62800118  0.79546654  0.61613260    -0.33000
C1868       C  0.63021095  0.77482674  0.63092934     0.01000
C1869       C  0.64786752  0.77561404  0.64853510    -0.24300
C1870       C  0.71875275  0.85285378  0.65310799    -0.28900
C1871       C  0.71967740  0.87137396  0.63622925     0.06700
C1872       C  0.70000875  0.87317065  0.62040514    -0.27600
H1873       H  0.71445226  0.81447895  0.68205083     0.11400
H1874       H  0.68360601  0.78063255  0.67993928     0.12500
H1875       H  0.66110096  0.87035415  0.59123896     0.11600
H1876       H  0.62989411  0.83655954  0.58932381     0.10800
H1877       H  0.61463093  0.79475031  0.60232822     0.16200
H1878       H  0.64961619  0.75969794  0.65990384     0.12100
H1879       H  0.73411558  0.85128312  0.66507735     0.15000
H1880       H  0.70099211  0.88713625  0.60707111     0.14800
C1881       C  0.44649933  0.67103240  0.59884504    -0.18100
C1882       C  0.42261593  0.66004589  0.59833729    -0.20300
C1883       C  0.41814857  0.63697026  0.60912295     0.20400
C1884       C  0.43810931  0.62461067  0.62014007    -0.03200
C1885       C  0.46228302  0.63560388  0.62047536    -0.06300
C1886       C  0.46645190  0.65910263  0.61003878     0.20700
C1887       C  0.48210016  0.62334832  0.63173945     0.18800
C1888       C  0.47774945  0.60015899  0.64234243    -0.17700
C1889       C  0.45380584  0.58941781  0.64220341    -0.20000
C1890       C  0.43380191  0.60157882  0.63131895     0.20300
C1891       C  0.40946925  0.59144034  0.63196213    -0.33000
C1892       C  0.38925194  0.60390573  0.62147061     0.01000
C1893       C  0.39394694  0.62643602  0.60965838    -0.24300
C1894       C  0.49026015  0.67053179  0.61150857    -0.28900
C1895       C  0.51002538  0.65867811  0.62321357     0.06700
C1896       C  0.50575992  0.63477104  0.63280832    -0.27600
H1897       H  0.44928682  0.68903177  0.59068966     0.11400
H1898       H  0.40751179  0.66982229  0.58979532     0.12500
H1899       H  0.49279609  0.59050456  0.65108531     0.11600
H1900       H  0.45087427  0.57171627  0.65084173     0.10800
H1901       H  0.40617654  0.57410988  0.64111428     0.16200
H1902       H  0.37855946  0.63637576  0.60168485     0.12100
H1903       H  0.49317960  0.68889253  0.60406763     0.15000
H1904       H  0.52065747  0.62529199  0.64191823     0.14800
C1905       C  0.65875463  0.86109223  0.37670538    -0.18100
C1906       C  0.64033151  0.84230435  0.37616135    -0.20300
C1907       C  0.64354989  0.82085875  0.36267148     0.20400
C1908       C  0.66496209  0.81905037  0.34864905    -0.03200
C1909       C  0.68349417  0.83803567  0.34913833    -0.06300
C1910       C  0.68075236  0.85884233  0.36373376     0.20700
C1911       C  0.70545646  0.83539915  0.33601759     0.18800
C1912       C  0.70811720  0.81471268  0.32155994    -0.17700
C1913       C  0.68986080  0.79592328  0.32113807    -0.20000
C1914       C  0.66862404  0.79756776  0.33511994     0.20300
C1915       C  0.65180204  0.77745979  0.33677885    -0.33000
C1916       C  0.63127265  0.77838304  0.35176472     0.01000
C1917       C  0.62658663  0.80058783  0.36391842    -0.24300
C1918       C  0.70067450  0.87609364  0.36609251    -0.28900
C1919       C  0.72335916  0.87231714  0.35434678     0.06700
C1920       C  0.72507591  0.85259186  0.33861289    -0.27600
H1921       H  0.65617065  0.87698187  0.38787534     0.11400
H1922       H  0.62395677  0.84414704  0.38691651     0.12500
H1923       H  0.72479118  0.81257292  0.31122277     0.11600
H1924       H  0.69280050  0.77966390  0.31047684     0.10800
H1925       H  0.65532519  0.76051368  0.32714700     0.16200
H1926       H  0.61081858  0.80139377  0.37550288     0.12100
H1927       H  0.69921809  0.89127447  0.37820646     0.15000
H1928       H  0.74237072  0.84982339  0.32923785     0.14800
C1929       C  0.45282744  0.59584316  0.36709708    -0.18100
C1930       C  0.47693572  0.60608438  0.36715145    -0.20300
C1931       C  0.48056764  0.63147493  0.37239405     0.20400
C1932       C  0.45996095  0.64642536  0.37880026    -0.03200
C1933       C  0.43562599  0.63597775  0.37905064    -0.06300
C1934       C  0.43201545  0.61077690  0.37250066     0.20700
C1935       C  0.41480858  0.65109759  0.38462359     0.18800
C1936       C  0.41864205  0.67624307  0.39076053    -0.17700
C1937       C  0.44275509  0.68667823  0.39025241    -0.20000
C1938       C  0.46347933  0.67209250  0.38377056     0.20300
C1939       C  0.48735192  0.68295812  0.38095051    -0.33000
C1940       C  0.50764394  0.66839644  0.37317343     0.01000
C1941       C  0.50423959  0.64242753  0.37004408    -0.24300
C1942       C  0.40761474  0.60135193  0.37020452    -0.28900
C1943       C  0.38671488  0.61673891  0.37441017     0.06700
C1944       C  0.39047497  0.64123613  0.38263554    -0.27600
H1945       H  0.45038994  0.57643010  0.36218131     0.11400
H1946       H  0.49264662  0.59436253  0.36228317     0.12500
H1947       H  0.40287197  0.68809383  0.39518725     0.11600
H1948       H  0.44508213  0.70634782  0.39429486     0.10800
H1949       H  0.48976386  0.70291735  0.38359535     0.16200
H1950       H  0.51975044  0.63084337  0.36441163     0.12100
H1951       H  0.40486642  0.58239734  0.36406715     0.15000
H1952       H  0.37446094  0.65325917  0.38584564     0.14800
C1953       C  0.63093619  0.68535076  0.50412064    -0.18100
C1954       C  0.63101548  0.68640054  0.48047498    -0.20300
C1955       C  0.61236147  0.69978894  0.46885790     0.20400
C1956       C  0.59333934  0.71215353  0.48115553    -0.03200
C1957       C  0.59323448  0.71105740  0.50507001    -0.06300
C1958       C  0.61217190  0.69762829  0.51655095     0.20700
C1959       C  0.57423117  0.72336950  0.51745989     0.18800
C1960       C  0.55556007  0.73674211  0.50579001    -0.17700
C1961       C  0.55565426  0.73781253  0.48207041    -0.20000
C1962       C  0.57444151  0.72556153  0.46957924     0.20300
C1963       C  0.57467407  0.72643088  0.44575656    -0.33000
C1964       C  0.59368746  0.71419113  0.43335956     0.01000
C1965       C  0.61244114  0.70094461  0.44515354    -0.24300
C1966       C  0.61208708  0.69668355  0.54026016    -0.28900
C1967       C  0.59322989  0.70883090  0.55283351     0.06700
C1968       C  0.57428523  0.72210868  0.54126078    -0.27600
H1969       H  0.64558066  0.67492656  0.51269656     0.11400
H1970       H  0.64571323  0.67675345  0.47126158     0.12500
H1971       H  0.54085145  0.74635902  0.51500999     0.11600
H1972       H  0.54100584  0.74822426  0.47349062     0.10800
H1973       H  0.56009763  0.73667226  0.43690008     0.16200
H1974       H  0.62706609  0.69124350  0.43587565     0.12100
H1975       H  0.62674168  0.68634534  0.54892711     0.15000
H1976       H  0.55975749  0.73169215  0.55075375     0.14800
C1977       C  0.86607438  0.33510685  0.60652348    -0.18100
C1978       C  0.84784023  0.35412450  0.60665435    -0.20300
C1979       C  0.82736068  0.35297346  0.62163870     0.20400
C1980       C  0.82605679  0.33308243  0.63745177    -0.03200
C1981       C  0.84435776  0.31388881  0.63726039    -0.06300
C1982       C  0.86416209  0.31453496  0.62133992     0.20700
C1983       C  0.84195990  0.29330788  0.65215752     0.18800
C1984       C  0.82232326  0.29272468  0.66796456    -0.17700
C1985       C  0.80430136  0.31170330  0.66819831    -0.20000
C1986       C  0.80561861  0.33150090  0.65258723     0.20300
C1987       C  0.78598048  0.34876501  0.65091633    -0.33000
C1988       C  0.78616106  0.36751866  0.63419824     0.01000
C1989       C  0.80739482  0.37033473  0.62022389    -0.24300
C1990       C  0.88074826  0.29396092  0.61974297    -0.28900
C1991       C  0.87718336  0.27269771  0.63354074     0.06700
C1992       C  0.85834532  0.27296214  0.65018494    -0.27600
H1993       H  0.88121241  0.33606917  0.59429417     0.11400
H1994       H  0.84931980  0.36930343  0.59450790     0.12500
H1995       H  0.82040414  0.27712931  0.67963031     0.11600
H1996       H  0.78879552  0.31039003  0.68002657     0.10800
H1997       H  0.76969227  0.34672885  0.66180786     0.16200
H1998       H  0.80752109  0.38474398  0.60725356     0.12100
H1999       H  0.89523454  0.29376490  0.60684591     0.15000
H2000       H  0.85575024  0.25669011  0.66099673     0.14800
C2001       C  0.60359807  0.54692656  0.63334030    -0.18100
C2002       C  0.61312065  0.52253032  0.63372397    -0.20300
C2003       C  0.63737256  0.51754781  0.62565234     0.20400
C2004       C  0.65191175  0.53716738  0.61643787    -0.03200
C2005       C  0.64223179  0.56183555  0.61595137    -0.06300
C2006       C  0.61813879  0.56672469  0.62481601     0.20700
C2007       C  0.65698745  0.58170570  0.60741313     0.18800
C2008       C  0.68104083  0.57653648  0.59885740    -0.17700
C2009       C  0.69067617  0.55207709  0.59941896    -0.20000
C2010       C  0.67642259  0.53231782  0.60850146     0.20300
C2011       C  0.68656357  0.50805386  0.61063497    -0.33000
C2012       C  0.67251765  0.48862766  0.62074162     0.01000
C2013       C  0.64763889  0.49347112  0.62752048    -0.24300
C2014       C  0.60935719  0.59143219  0.62590069    -0.28900
C2015       C  0.62431197  0.61153509  0.61840995     0.06700
C2016       C  0.64783304  0.60645625  0.60849492    -0.27600
H2017       H  0.58503764  0.55039548  0.64015755     0.11400
H2018       H  0.60171861  0.50764206  0.64082348     0.12500
H2019       H  0.69263776  0.59151207  0.59218988     0.11600
H2020       H  0.70949566  0.54871236  0.59316999     0.10800
H2021       H  0.70572236  0.50460497  0.60531805     0.16200
H2022       H  0.63650609  0.47873679  0.63522896     0.12100
H2023       H  0.59115244  0.59510924  0.63341286     0.15000
H2024       H  0.65957156  0.62182351  0.60280732     0.14800
C2025       C  0.56547262  0.30364536  0.60461985    -0.18100
C2026       C  0.58972797  0.31380818  0.60471512    -0.20300
C2027       C  0.59383529  0.33861333  0.61177722     0.20400
C2028       C  0.57315320  0.35352679  0.61818970    -0.03200
C2029       C  0.54863679  0.34330114  0.61796618    -0.06300
C2030       C  0.54480751  0.31810444  0.61150167     0.20700
C2031       C  0.52810224  0.35804774  0.62496925     0.18800
C2032       C  0.53208992  0.38302296  0.63154596    -0.17700
C2033       C  0.55632959  0.39308307  0.63188646    -0.20000
C2034       C  0.57702916  0.37838595  0.62558390     0.20300
C2035       C  0.60155954  0.38783454  0.62734471    -0.33000
C2036       C  0.62241881  0.37284132  0.62174992     0.01000
C2037       C  0.61829142  0.34844266  0.61335436    -0.24300
C2038       C  0.52059709  0.30755564  0.61286982    -0.28900
C2039       C  0.50014460  0.32184775  0.62078287     0.06700
C2040       C  0.50408269  0.34733852  0.62613906    -0.27600
H2041       H  0.56294271  0.28429795  0.59954659     0.11400
H2042       H  0.60536353  0.30206820  0.59970247     0.12500
H2043       H  0.51650304  0.39463451  0.63692048     0.11600
H2044       H  0.55893455  0.41223512  0.63750790     0.10800
H2045       H  0.60444890  0.40666877  0.63371007     0.16200
H2046       H  0.63416994  0.33663253  0.60912571     0.12100
H2047       H  0.51793614  0.28794188  0.60874700     0.15000
H2048       H  0.48859556  0.35870035  0.63217008     0.14800
C2049       C  0.82618551  0.30010423  0.32050428    -0.18100
C2050       C  0.80775062  0.31871567  0.32035533    -0.20300
C2051       C  0.80770669  0.33754854  0.33691473     0.20400
C2052       C  0.82688480  0.33819017  0.35335891    -0.03200
C2053       C  0.84553432  0.31932839  0.35352633    -0.06300
C2054       C  0.84484012  0.30000752  0.33723759     0.20700
C2055       C  0.86409139  0.31910054  0.37060698     0.18800
C2056       C  0.86416963  0.33821392  0.38695048    -0.17700
C2057       C  0.84566525  0.35693111  0.38678218    -0.20000
C2058       C  0.82671247  0.35692586  0.37026022     0.20300
C2059       C  0.80687843  0.37443423  0.37100216    -0.33000
C2060       C  0.78708266  0.37294014  0.35532706     0.01000
C2061       C  0.78805623  0.35491653  0.33799998    -0.24300
C2062       C  0.86191990  0.28015114  0.33868006    -0.28900
C2063       C  0.87963884  0.27909046  0.35625387     0.06700
C2064       C  0.88130442  0.29904731  0.37171817    -0.27600
H2065       H  0.82544726  0.28538438  0.30789068     0.11400
H2066       H  0.79313830  0.31800596  0.30762496     0.12500
H2067       H  0.87819898  0.33834986  0.40021588     0.11600
H2068       H  0.84584088  0.37108827  0.39991919     0.10800
H2069       H  0.80590880  0.38797558  0.38464840     0.16200
H2070       H  0.77269406  0.35361320  0.32601570     0.12100
H2071       H  0.86059931  0.26471692  0.32678899     0.15000
H2072       H  0.89471436  0.29805730  0.38548550     0.14800
C2073       C  0.61237042  0.52645139  0.35338182    -0.18100
C2074       C  0.60212552  0.55058947  0.35325920    -0.20300
C2075       C  0.61550547  0.57078555  0.36248064     0.20400
C2076       C  0.63909993  0.56646952  0.37259636    -0.03200
C2077       C  0.64956784  0.54206028  0.37255129    -0.06300
C2078       C  0.63624266  0.52209977  0.36261655     0.20700
C2079       C  0.67370845  0.53783617  0.38165193     0.18800
C2080       C  0.68664199  0.55793299  0.39161393    -0.17700
C2081       C  0.67619404  0.58208656  0.39181210    -0.20000
C2082       C  0.65264364  0.58667428  0.38195383     0.20300
C2083       C  0.64289458  0.61119887  0.38041027    -0.33000
C2084       C  0.61997807  0.61582795  0.36921141     0.01000
C2085       C  0.60612676  0.59532262  0.36090341    -0.24300
C2086       C  0.64735948  0.49833342  0.36121401    -0.28900
C2087       C  0.67202240  0.49409372  0.36905091     0.06700
C2088       C  0.68482702  0.51388888  0.37982291    -0.27600
H2089       H  0.60186702  0.51128164  0.34573126     0.11400
H2090       H  0.58394055  0.55355003  0.34551045     0.12500
H2091       H  0.70510447  0.55508883  0.39883775     0.11600
H2092       H  0.68684127  0.59732018  0.39918297     0.10800
H2093       H  0.65379018  0.62678495  0.38684839     0.16200
H2094       H  0.58838052  0.59853656  0.35241939     0.12100
H2095       H  0.63707929  0.48338259  0.35297510     0.15000
H2096       H  0.70372898  0.51094477  0.38603177     0.14800
C2097       C  0.55935970  0.40063974  0.36852427    -0.18100
C2098       C  0.53509245  0.39077816  0.36918535    -0.20300
C2099       C  0.53125191  0.36517170  0.37346248     0.20400
C2100       C  0.55194646  0.34947847  0.37794634    -0.03200
C2101       C  0.57646287  0.35950667  0.37754034    -0.06300
C2102       C  0.58016379  0.38509130  0.37229750     0.20700
C2103       C  0.59728457  0.34374414  0.38144547     0.18800
C2104       C  0.59335314  0.31823117  0.38619749    -0.17700
C2105       C  0.56905113  0.30823952  0.38635573    -0.20000
C2106       C  0.54823133  0.32361936  0.38192832     0.20300
C2107       C  0.52392554  0.31345704  0.38044027    -0.33000
C2108       C  0.50332884  0.32886511  0.37495824     0.01000
C2109       C  0.50715754  0.35485440  0.37230887    -0.24300
C2110       C  0.60459302  0.39445338  0.36994887    -0.28900
C2111       C  0.62542143  0.37867144  0.37299734     0.06700
C2112       C  0.62165650  0.35353983  0.37950754    -0.27600
H2113       H  0.56188113  0.42033176  0.36458842     0.11400
H2114       H  0.51934945  0.40306589  0.36574618     0.12500
H2115       H  0.60912893  0.30585866  0.38923428     0.11600
H2116       H  0.56658495  0.28837186  0.38950428     0.10800
H2117       H  0.52125825  0.29343695  0.38251221     0.16200
H2118       H  0.49150783  0.36702116  0.36819300     0.12100
H2119       H  0.60742485  0.41384764  0.36502243     0.15000
H2120       H  0.63767038  0.34122215  0.38165689     0.14800
C2121       C  0.70957319  0.36137967  0.50566472    -0.18100
C2122       C  0.71082804  0.36201162  0.48200390    -0.20300
C2123       C  0.71670802  0.38437482  0.47060474     0.20400
C2124       C  0.72156005  0.40629798  0.48316119    -0.03200
C2125       C  0.72039385  0.40563248  0.50710618    -0.06300
C2126       C  0.71430293  0.38306934  0.51838167     0.20700
C2127       C  0.72531394  0.42750604  0.51972913     0.18800
C2128       C  0.73125487  0.44985944  0.50829539    -0.17700
C2129       C  0.73230100  0.45054236  0.48457552    -0.20000
C2130       C  0.72745165  0.42887797  0.47181385     0.20300
C2131       C  0.72811001  0.42944198  0.44795159    -0.33000
C2132       C  0.72287946  0.40769062  0.43524896     0.01000
C2133       C  0.71750179  0.38519015  0.44686555    -0.24300
C2134       C  0.71323296  0.38248674  0.54215717    -0.28900
C2135       C  0.71846506  0.40410104  0.55498218     0.06700
C2136       C  0.72436189  0.42660271  0.54353174    -0.27600
H2137       H  0.70492357  0.34388549  0.51402687     0.11400
H2138       H  0.70706255  0.34499588  0.47259840     0.12500
H2139       H  0.73508908  0.46685284  0.51770831     0.11600
H2140       H  0.73685674  0.46805618  0.47620694     0.10800
H2141       H  0.73235648  0.44687720  0.43930707     0.16200
H2142       H  0.71357120  0.36822533  0.43742926     0.12100
H2143       H  0.70869647  0.36504226  0.55067034     0.15000
H2144       H  0.72830614  0.44345227  0.55312885     0.14800
C2145       C  0.20750701  0.30681738  0.82371302    -0.18100
C2146       C  0.18897609  0.28835546  0.82336769    -0.20300
C2147       C  0.16738957  0.29089725  0.83675587     0.20400
C2148       C  0.16375438  0.31278523  0.84975647    -0.03200
C2149       C  0.18251000  0.33146488  0.85010915    -0.06300
C2150       C  0.20467896  0.32808515  0.83741998     0.20700
C2151       C  0.17967882  0.35283054  0.86402690     0.18800
C2152       C  0.15756212  0.35569993  0.87671970    -0.17700
C2153       C  0.13893020  0.33713966  0.87637508    -0.20000
C2154       C  0.14207917  0.31534206  0.86335987     0.20300
C2155       C  0.12481900  0.29540024  0.86475273    -0.33000
C2156       C  0.12952324  0.27291136  0.85313247     0.01000
C2157       C  0.15020093  0.27122512  0.83846230    -0.24300
C2158       C  0.22420661  0.34535960  0.83949751    -0.28900
C2159       C  0.22213721  0.36599346  0.85415509     0.06700
C2160       C  0.19951959  0.37020633  0.86581444    -0.27600
H2161       H  0.22440514  0.30409191  0.81379385     0.11400
H2162       H  0.19191885  0.27169456  0.81322009     0.12500
H2163       H  0.15497623  0.37197629  0.88742551     0.11600
H2164       H  0.12239808  0.33948503  0.88685099     0.10800
H2165       H  0.10889753  0.29662368  0.87613744     0.16200
H2166       H  0.15366352  0.25390660  0.82935078     0.12100
H2167       H  0.24160249  0.34219490  0.83037143     0.15000
H2168       H  0.19797689  0.38601161  0.87725037     0.14800
C2169       C  0.26090726  0.45561255  0.71101658    -0.18100
C2170       C  0.26088041  0.44326292  0.73197958    -0.20300
C2171       C  0.26140531  0.45698545  0.75225379     0.20400
C2172       C  0.26060797  0.48343062  0.75142733    -0.03200
C2173       C  0.26085490  0.49590812  0.73024938    -0.06300
C2174       C  0.26161639  0.48191079  0.70994725     0.20700
C2175       C  0.26210159  0.52233605  0.72945040     0.18800
C2176       C  0.26166639  0.53606909  0.74971198    -0.17700
C2177       C  0.26119558  0.52372881  0.77065725    -0.20000
C2178       C  0.26130796  0.49743069  0.77172798     0.20300
C2179       C  0.26386298  0.48493818  0.79261237    -0.33000
C2180       C  0.26640928  0.45873906  0.79334600     0.01000
C2181       C  0.26443881  0.44482935  0.77321690    -0.24300
C2182       C  0.26486685  0.49438558  0.68910736    -0.28900
C2183       C  0.26771773  0.52056871  0.68845256     0.06700
C2184       C  0.26551866  0.53446802  0.70854327    -0.27600
H2185       H  0.26136205  0.44456485  0.69564110     0.11400
H2186       H  0.26132706  0.42294730  0.73231981     0.12500
H2187       H  0.26254233  0.55636629  0.74937931     0.11600
H2188       H  0.26169646  0.53477309  0.78603906     0.10800
H2189       H  0.26596982  0.49567555  0.80807826     0.16200
H2190       H  0.26683284  0.42463736  0.77378059     0.12100
H2191       H  0.26714759  0.48364977  0.67366238     0.15000
H2192       H  0.26822713  0.55461977  0.70803645     0.14800
C2193       C  0.30600024  0.34270733  0.71347956    -0.18100
C2194       C  0.29736905  0.35277530  0.73391016    -0.20300
C2195       C  0.30834750  0.34552747  0.75449931     0.20400
C2196       C  0.32716753  0.32688524  0.75469423    -0.03200
C2197       C  0.33619823  0.31713390  0.73411412    -0.06300
C2198       C  0.32595365  0.32553054  0.71336398     0.20700
C2199       C  0.35676428  0.30045549  0.73425768     0.18800
C2200       C  0.36694417  0.29228867  0.75487620    -0.17700
C2201       C  0.35765349  0.30157106  0.77530406    -0.20000
C2202       C  0.33831283  0.31938064  0.77533452     0.20300
C2203       C  0.33128857  0.33121540  0.79544892    -0.33000
C2204       C  0.31431048  0.35121201  0.79492950     0.01000
C2205       C  0.30221637  0.35782083  0.77469023    -0.24300
C2206       C  0.33716960  0.31814046  0.69294268    -0.28900
C2207       C  0.35894050  0.30338318  0.69331098     0.06700
C2208       C  0.36801905  0.29373998  0.71380968    -0.27600
H2209       H  0.29787784  0.34924370  0.69772552     0.11400
H2210       H  0.28275290  0.36690496  0.73353965     0.12500
H2211       H  0.38268007  0.27942233  0.75517113     0.11600
H2212       H  0.36636197  0.29568096  0.79101795     0.10800
H2213       H  0.34075965  0.32652042  0.81115552     0.16200
H2214       H  0.28913375  0.37340831  0.77451243     0.12100
H2215       H  0.33046972  0.32573404  0.67700791     0.15000
H2216       H  0.38488211  0.28233960  0.71387300     0.14800
C2217       C  0.18241365  0.30352659  0.16814689    -0.18100
C2218       C  0.20125650  0.32173990  0.16808218    -0.20300
C2219       C  0.20179018  0.34036063  0.15126942     0.20400
C2220       C  0.18259595  0.34127251  0.13485320    -0.03200
C2221       C  0.16347107  0.32281279  0.13492935    -0.06300
C2222       C  0.16377362  0.30359367  0.15139279     0.20700
C2223       C  0.14479797  0.32288024  0.11795468     0.18800
C2224       C  0.14506688  0.34196871  0.10149794    -0.17700
C2225       C  0.16405040  0.36024737  0.10140506    -0.20000
C2226       C  0.18316652  0.35988803  0.11779587     0.20300
C2227       C  0.20344224  0.37696916  0.11685696    -0.33000
C2228       C  0.22329885  0.37521880  0.13253698     0.01000
C2229       C  0.22186449  0.35728251  0.15000632    -0.24300
C2230       C  0.14628251  0.28401788  0.15016084    -0.28900
C2231       C  0.12835077  0.28320446  0.13274226     0.06700
C2232       C  0.12708094  0.30316645  0.11711271    -0.27600
H2233       H  0.18282454  0.28895696  0.18095959     0.11400
H2234       H  0.21581679  0.32085727  0.18085336     0.12500
H2235       H  0.13093346  0.34240792  0.08832860     0.11600
H2236       H  0.16409232  0.37434584  0.08817160     0.10800
H2237       H  0.20457921  0.39046855  0.10314876     0.16200
H2238       H  0.23708443  0.35578937  0.16211835     0.12100
H2239       H  0.14731927  0.26866307  0.16220473     0.15000
H2240       H  0.11348320  0.30247163  0.10348908     0.14800
C2241       C  0.26705731  0.44724017  0.00385169    -0.18100
C2242       C  0.26728830  0.44654719  0.98019205    -0.20300
C2243       C  0.27767306  0.42597122  0.96875563     0.20400
C2244       C  0.28795148  0.40587601  0.98125199    -0.03200
C2245       C  0.28762465  0.40652533  0.00513675    -0.06300
C2246       C  0.27716781  0.42734277  0.01645877     0.20700
C2247       C  0.29778213  0.38638681  0.01765935     0.18800
C2248       C  0.30830656  0.36587073  0.00621265    -0.17700
C2249       C  0.30870876  0.36526789  0.98252740    -0.20000
C2250       C  0.29852402  0.38514155  0.96990402     0.20300
C2251       C  0.29862944  0.38460239  0.94614999    -0.33000
C2252       C  0.28820017  0.40449854  0.93353823     0.01000
C2253       C  0.27786199  0.42514829  0.94504580    -0.24300
C2254       C  0.27709569  0.42797899  0.04018068    -0.28900
C2255       C  0.28720604  0.40800196  0.05281422     0.06700
C2256       C  0.29737760  0.38718842  0.04139229    -0.27600
H2257       H  0.25896143  0.46335347  0.01229579     0.11400
H2258       H  0.25933512  0.46212668  0.97082742     0.12500
H2259       H  0.31625035  0.35029037  0.01558211     0.11600
H2260       H  0.31693074  0.34921997  0.97408051     0.10800
H2261       H  0.30672216  0.36859962  0.93751812     0.16200
H2262       H  0.26985872  0.44062754  0.93556777     0.12100
H2263       H  0.26913527  0.44406072  0.04879895     0.15000
H2264       H  0.30536210  0.37176090  0.05095369     0.14800
C2265       C  0.25622968  0.47656326  0.26833794    -0.18100
C2266       C  0.25607731  0.46318548  0.24793520    -0.20300
C2267       C  0.26316821  0.47486722  0.22758331     0.20400
C2268       C  0.26961885  0.50056590  0.22767572    -0.03200
C2269       C  0.26989484  0.51402151  0.24826593    -0.06300
C2270       C  0.26356756  0.50184784  0.26876783     0.20700
C2271       C  0.27789598  0.53925522  0.24848188     0.18800
C2272       C  0.28434725  0.55116619  0.22809162    -0.17700
C2273       C  0.28400284  0.53787819  0.20771201    -0.20000
C2274       C  0.27722165  0.51246178  0.20741189     0.20300
C2275       C  0.27935414  0.49838734  0.18747788    -0.33000
C2276       C  0.27407668  0.47262128  0.18754093     0.01000
C2277       C  0.26535756  0.46103597  0.20741355    -0.24300
C2278       C  0.26614388  0.51474234  0.28940974    -0.28900
C2279       C  0.27564492  0.53931298  0.28969624     0.06700
C2280       C  0.28076239  0.55167677  0.26919549    -0.27600
H2281       H  0.25133270  0.46691726  0.28388530     0.11400
H2282       H  0.25106608  0.44349264  0.24817835     0.12500
H2283       H  0.29041043  0.57056777  0.22799944     0.11600
H2284       H  0.28980081  0.54727180  0.19228891     0.10800
H2285       H  0.28658807  0.50709746  0.17219393     0.16200
H2286       H  0.26189150  0.44099649  0.20749364     0.12100
H2287       H  0.26262561  0.50509325  0.30527468     0.15000
H2288       H  0.28824365  0.57059621  0.26949779     0.14800
C2289       C  0.36434364  0.31264588  0.21326622    -0.18100
C2290       C  0.37442139  0.30400373  0.23371407    -0.20300
C2291       C  0.36613805  0.31394142  0.25441507     0.20400
C2292       C  0.34675475  0.33198233  0.25460559    -0.03200
C2293       C  0.33693613  0.34104234  0.23397782    -0.06300
C2294       C  0.34607033  0.33160086  0.21319731     0.20700
C2295       C  0.31905811  0.36057438  0.23414921     0.18800
C2296       C  0.31001525  0.36976792  0.25485381    -0.17700
C2297       C  0.31938897  0.36044450  0.27530401    -0.20000
C2298       C  0.33816095  0.34199818  0.27535098     0.20300
C2299       C  0.34944692  0.33442514  0.29568331    -0.33000
C2300       C  0.36984732  0.31779365  0.29540921     0.01000
C2301       C  0.37773975  0.30715423  0.27482912    -0.24300
C2302       C  0.33796133  0.34239809  0.19278456    -0.28900
C2303       C  0.32171724  0.36312538  0.19305878     0.06700
C2304       C  0.31169268  0.37159114  0.21367035    -0.27600
H2305       H  0.37151283  0.30517038  0.19748280     0.11400
H2306       H  0.38916881  0.29000940  0.23330730     0.12500
H2307       H  0.29618605  0.38466678  0.25522952     0.11600
H2308       H  0.31258679  0.36829253  0.29107141     0.10800
H2309       H  0.34360286  0.34285209  0.31153974     0.16200
H2310       H  0.39350084  0.29427439  0.27467125     0.12100
H2311       H  0.34586846  0.33607970  0.17685309     0.15000
H2312       H  0.29908299  0.38756517  0.21378858     0.14800
C2313       C  0.66939893  0.14065540  0.89783084    -0.18100
C2314       C  0.65108386  0.15957881  0.89774150    -0.20300
C2315       C  0.64833818  0.17554293  0.87893559     0.20400
C2316       C  0.66372943  0.17180400  0.85974143    -0.03200
C2317       C  0.68215687  0.15266379  0.85980651    -0.06300
C2318       C  0.68532883  0.13726683  0.87910288     0.20700
C2319       C  0.69825491  0.14982230  0.84098987     0.18800
C2320       C  0.69514643  0.16529313  0.82195186    -0.17700
C2321       C  0.67698867  0.18421814  0.82190585    -0.20000
C2322       C  0.66158719  0.18798211  0.84088072     0.20300
C2323       C  0.64498755  0.20838936  0.84172500    -0.33000
C2324       C  0.63020772  0.21277463  0.86101988     0.01000
C2325       C  0.63140069  0.19589173  0.87935146    -0.24300
C2326       C  0.70520616  0.11977342  0.87974790    -0.28900
C2327       C  0.72211657  0.11797696  0.86149881     0.06700
C2328       C  0.71807867  0.13256399  0.84199847    -0.27600
H2329       H  0.67150897  0.12906111  0.91279702     0.11400
H2330       H  0.63947465  0.16212698  0.91263423     0.12500
H2331       H  0.70727553  0.16324424  0.80733142     0.11600
H2332       H  0.67546092  0.19637195  0.80724442     0.10800
H2333       H  0.64424748  0.22153293  0.82769778     0.16200
H2334       H  0.62035749  0.19952043  0.89442499     0.12100
H2335       H  0.70858170  0.10890717  0.89498108     0.15000
H2336       H  0.73126812  0.13137676  0.82803354     0.14800
C2337       C  0.70782737  0.35962428  0.75645315    -0.18100
C2338       C  0.69863931  0.35131248  0.77734827    -0.20300
C2339       C  0.68065016  0.33214209  0.77830906     0.20400
C2340       C  0.67302843  0.32013176  0.75812102    -0.03200
C2341       C  0.68261118  0.32823020  0.73708304    -0.06300
C2342       C  0.69933948  0.34870340  0.73624892     0.20700
C2343       C  0.67389635  0.31718159  0.71680434     0.18800
C2344       C  0.65670500  0.29730715  0.71784230    -0.17700
C2345       C  0.64691519  0.28954353  0.73866968    -0.20000
C2346       C  0.65440195  0.30134397  0.75877107     0.20300
C2347       C  0.64234034  0.29596153  0.77925814    -0.33000
C2348       C  0.64888781  0.30887387  0.79906003     0.01000
C2349       C  0.66880318  0.32603948  0.79881677    -0.24300
C2350       C  0.70557853  0.35921113  0.71524870    -0.28900
C2351       C  0.69531968  0.34949780  0.69517865     0.06700
C2352       C  0.68079488  0.32761112  0.69587751    -0.27600
H2353       H  0.72079723  0.37526428  0.75604866     0.11400
H2354       H  0.70474265  0.36065047  0.79266823     0.12500
H2355       H  0.64990843  0.28858362  0.70246893     0.11600
H2356       H  0.63276570  0.27495422  0.73896960     0.10800
H2357       H  0.62687573  0.28273715  0.77961859     0.16200
H2358       H  0.67353720  0.33615935  0.81414772     0.12100
H2359       H  0.71683959  0.37613962  0.71458031     0.15000
H2360       H  0.67272297  0.32035080  0.68036427     0.14800
C2361       C  0.53506298  0.25127914  0.71478069    -0.18100
C2362       C  0.54921837  0.25215675  0.73475378    -0.20300
C2363       C  0.53735923  0.25465065  0.75588300     0.20400
C2364       C  0.51087742  0.25523884  0.75692834    -0.03200
C2365       C  0.49660960  0.25492853  0.73672740    -0.06300
C2366       C  0.50880221  0.25326604  0.71553046     0.20700
C2367       C  0.47028373  0.25777285  0.73770128     0.18800
C2368       C  0.45833751  0.25929777  0.75885660    -0.17700
C2369       C  0.47240722  0.25903569  0.77886326    -0.20000
C2370       C  0.49869266  0.25764790  0.77806179     0.20300
C2371       C  0.51302178  0.26020483  0.79787490    -0.33000
C2372       C  0.53931048  0.26130048  0.79676677     0.01000
C2373       C  0.55143817  0.25801861  0.77582104    -0.24300
C2374       C  0.49467993  0.25516218  0.69547520    -0.28900
C2375       C  0.46873156  0.25970156  0.69639882     0.06700
C2376       C  0.45656427  0.26047168  0.71752547    -0.27600
H2377       H  0.54472849  0.24996517  0.69867570     0.11400
H2378       H  0.56950389  0.25151978  0.73362053     0.12500
H2379       H  0.43814562  0.26133654  0.75991633     0.11600
H2380       H  0.46276875  0.26086196  0.79494477     0.10800
H2381       H  0.50371312  0.26329581  0.81397663     0.16200
H2382       H  0.57172568  0.25928237  0.77494257     0.12100
H2383       H  0.50412005  0.25513196  0.67919658     0.15000
H2384       H  0.43659496  0.26429412  0.71822781     0.14800
C2385       C  0.45063713  0.39639717  0.85664388    -0.18100
C2386       C  0.47482768  0.38631387  0.85738980    -0.20300
C2387       C  0.47860186  0.36121993  0.86373074     0.20400
C2388       C  0.45791860  0.34625484  0.86991136    -0.03200
C2389       C  0.43348250  0.35653304  0.86939493    -0.06300
C2390       C  0.42982175  0.38162045  0.86240538     0.20700
C2391       C  0.41269765  0.34153091  0.87527157     0.18800
C2392       C  0.41654467  0.31647831  0.88180836    -0.17700
C2393       C  0.44074733  0.30622392  0.88210120    -0.20000
C2394       C  0.46156895  0.32087630  0.87599459     0.20300
C2395       C  0.48582489  0.31043578  0.87513787    -0.33000
C2396       C  0.50645658  0.32510587  0.86826381     0.01000
C2397       C  0.50263665  0.35067417  0.86321876    -0.24300
C2398       C  0.40540210  0.39130739  0.86070200    -0.28900
C2399       C  0.38451315  0.37636111  0.86612813     0.06700
C2400       C  0.38840090  0.35161842  0.87385675    -0.27600
H2401       H  0.44818517  0.41568799  0.85129337     0.11400
H2402       H  0.49056807  0.39803101  0.85258482     0.12500
H2403       H  0.40077339  0.30467602  0.88634446     0.11600
H2404       H  0.44313869  0.28673143  0.88683389     0.10800
H2405       H  0.48845548  0.29073406  0.87900135     0.16200
H2406       H  0.51828660  0.36229082  0.85796275     0.12100
H2407       H  0.40262878  0.41033575  0.85470815     0.15000
H2408       H  0.37244067  0.33979566  0.87780531     0.14800
C2409       C  0.69836013  0.17703316  0.17124735    -0.18100
C2410       C  0.67947192  0.19515817  0.17110895    -0.20300
C2411       C  0.65993491  0.19384847  0.15527760     0.20400
C2412       C  0.65856055  0.17337595  0.14022044    -0.03200
C2413       C  0.67764584  0.15496379  0.14041842    -0.06300
C2414       C  0.69794563  0.15728967  0.15559899     0.20700
C2415       C  0.67724655  0.13516380  0.12454489     0.18800
C2416       C  0.65705930  0.13340444  0.10933706    -0.17700
C2417       C  0.63815434  0.15174023  0.10908439    -0.20000
C2418       C  0.63903131  0.17216256  0.12407660     0.20300
C2419       C  0.62177793  0.19216859  0.12235005    -0.33000
C2420       C  0.62432717  0.21333227  0.13636108     0.01000
C2421       C  0.64275825  0.21352828  0.15330223    -0.24300
C2422       C  0.71828250  0.14082052  0.15394841    -0.28900
C2423       C  0.71879995  0.12203438  0.13732261     0.06700
C2424       C  0.69779193  0.11852336  0.12327302    -0.27600
H2425       H  0.71376615  0.17894943  0.18307950     0.11400
H2426       H  0.68065513  0.21072307  0.18283597     0.12500
H2427       H  0.65633603  0.11831009  0.09709724     0.11600
H2428       H  0.62328350  0.15037365  0.09665209     0.10800
H2429       H  0.60768187  0.19213227  0.10912744     0.16200
H2430       H  0.64465631  0.22987360  0.16408985     0.12100
H2431       H  0.73448369  0.14348543  0.16479441     0.15000
H2432       H  0.69829277  0.10418258  0.11029043     0.14800
C2433       C  0.43879678  0.30771518  0.10584900    -0.18100
C2434       C  0.41479717  0.31838742  0.10506785    -0.20300
C2435       C  0.41150046  0.34421100  0.10860651     0.20400
C2436       C  0.43268248  0.35955043  0.11226899    -0.03200
C2437       C  0.45689353  0.34880090  0.11295207    -0.06300
C2438       C  0.45993470  0.32269165  0.11010141     0.20700
C2439       C  0.47791604  0.36405251  0.11746061     0.18800
C2440       C  0.47472289  0.38996244  0.12038944    -0.17700
C2441       C  0.45075704  0.40057927  0.11983320    -0.20000
C2442       C  0.42960597  0.38546788  0.11626871     0.20300
C2443       C  0.40540567  0.39561749  0.11772537    -0.33000
C2444       C  0.38421776  0.38026939  0.11505360     0.01000
C2445       C  0.38737641  0.35477101  0.10965915    -0.24300
C2446       C  0.48387218  0.31192032  0.11254960    -0.28900
C2447       C  0.50469003  0.32689814  0.11822564     0.06700
C2448       C  0.50161420  0.35303160  0.11998083    -0.27600
H2449       H  0.44076204  0.28764934  0.10361032     0.11400
H2450       H  0.39874605  0.30633261  0.10225151     0.12500
H2451       H  0.49071110  0.40193403  0.12373737     0.11600
H2452       H  0.44871110  0.42052546  0.12277349     0.10800
H2453       H  0.40300088  0.41530064  0.12177726     0.16200
H2454       H  0.37105170  0.34282986  0.10778951     0.12100
H2455       H  0.48601702  0.29175567  0.11129308     0.15000
H2456       H  0.51755956  0.36474674  0.12419151     0.14800
C2457       C  0.63741746  0.28499163  0.98439193    -0.18100
C2458       C  0.63743006  0.28529471  0.00806276    -0.20300
C2459       C  0.61489316  0.28277306  0.02014944     0.20400
C2460       C  0.59211765  0.27980669  0.00827876    -0.03200
C2461       C  0.59209620  0.27958613  0.98436707    -0.06300
C2462       C  0.61486393  0.28221779  0.97242044     0.20700
C2463       C  0.56932690  0.27675727  0.97244392     0.18800
C2464       C  0.54679988  0.27419468  0.98456465    -0.17700
C2465       C  0.54682913  0.27432495  0.00827432    -0.20000
C2466       C  0.56937585  0.27707988  0.02028050     0.20300
C2467       C  0.56957501  0.27719403  0.04405508    -0.33000
C2468       C  0.59218597  0.28032316  0.05601450     0.01000
C2469       C  0.61475609  0.28316608  0.04388941    -0.24300
C2470       C  0.61473759  0.28207480  0.94870898    -0.28900
C2471       C  0.59216220  0.27928391  0.93660260     0.06700
C2472       C  0.56949872  0.27657599  0.94864292    -0.27600
H2473       H  0.65506063  0.28698973  0.97543836     0.11400
H2474       H  0.65508141  0.28751976  0.01692104     0.12500
H2475       H  0.52914120  0.27205303  0.97570321     0.11600
H2476       H  0.52919451  0.27227648  0.01722956     0.10800
H2477       H  0.55207621  0.27514347  0.05324499     0.16200
H2478       H  0.63229880  0.28543094  0.05293544     0.12100
H2479       H  0.63234517  0.28408102  0.93968546     0.15000
H2480       H  0.55198204  0.27449864  0.93952556     0.14800
C2481       C  0.63614034  0.29661362  0.25665296    -0.18100
C2482       C  0.64589357  0.30538493  0.27712853    -0.20300
C2483       C  0.66569605  0.32270188  0.27720968     0.20400
C2484       C  0.67681870  0.33009456  0.25650797    -0.03200
C2485       C  0.66732510  0.32082378  0.23587086    -0.06300
C2486       C  0.64627473  0.30476786  0.23597451     0.20700
C2487       C  0.67770452  0.32907414  0.21511718     0.18800
C2488       C  0.69812314  0.34566983  0.21523795    -0.17700
C2489       C  0.70716235  0.35529840  0.23568111    -0.20000
C2490       C  0.69617742  0.34814996  0.25631782     0.20300
C2491       C  0.70293218  0.36000267  0.27657418    -0.33000
C2492       C  0.69091101  0.35364371  0.29696685     0.01000
C2493       C  0.67328160  0.33415386  0.29743012    -0.24300
C2494       C  0.63466515  0.29863635  0.21545561    -0.28900
C2495       C  0.64408355  0.30802938  0.19492714     0.06700
C2496       C  0.66628168  0.32211825  0.19467597    -0.27600
H2497       H  0.62011684  0.28412367  0.25697651     0.11400
H2498       H  0.63720665  0.29949315  0.29286218     0.12500
H2499       H  0.70634146  0.35210771  0.19947772     0.11600
H2500       H  0.72216581  0.36900000  0.23529426     0.10800
H2501       H  0.71649600  0.37516049  0.27633541     0.16200
H2502       H  0.66381461  0.32959275  0.31317897     0.12100
H2503       H  0.61747234  0.28775968  0.21548929     0.15000
H2504       H  0.67327469  0.32953202  0.17876399     0.14800
C2505       C  0.46102222  0.25258707  0.24055059    -0.18100
C2506       C  0.47351634  0.25239781  0.21967863    -0.20300
C2507       C  0.49949144  0.25660876  0.21858762     0.20400
C2508       C  0.51311487  0.26030151  0.23884524    -0.03200
C2509       C  0.50053288  0.26045260  0.25988291    -0.06300
C2510       C  0.47428082  0.25695974  0.26068652     0.20700
C2511       C  0.51400964  0.26554661  0.27995444     0.18800
C2512       C  0.53998429  0.26957141  0.27894361    -0.17700
C2513       C  0.55243498  0.26941622  0.25812051    -0.20000
C2514       C  0.53909954  0.26525069  0.23800617     0.20300
C2515       C  0.55102552  0.26747700  0.21700305    -0.33000
C2516       C  0.53739410  0.26501791  0.19679582     0.01000
C2517       C  0.51183427  0.25870817  0.19759413    -0.24300
C2518       C  0.46161948  0.25943358  0.28141596    -0.28900
C2519       C  0.47489730  0.26562816  0.30112112     0.06700
C2520       C  0.50105977  0.26805315  0.30046961    -0.27600
H2521       H  0.44085673  0.24997102  0.24087972     0.11400
H2522       H  0.46275374  0.24963240  0.20433686     0.12500
H2523       H  0.55055290  0.27353776  0.29418886     0.11600
H2524       H  0.57238849  0.27327223  0.25768496     0.10800
H2525       H  0.57069725  0.27264856  0.21629528     0.16200
H2526       H  0.50123783  0.25739751  0.18197936     0.12100
H2527       H  0.44130385  0.25832100  0.28196698     0.15000
H2528       H  0.51107179  0.27350311  0.31567266     0.14800
C2529       C  0.82156853  0.69637013  0.82240531    -0.18100
C2530       C  0.80280774  0.67809154  0.82216568    -0.20300
C2531       C  0.80393974  0.65756658  0.83702078     0.20400
C2532       C  0.82469934  0.65483140  0.85162820    -0.03200
C2533       C  0.84368744  0.67341001  0.85191987    -0.06300
C2534       C  0.84175323  0.69447142  0.83754069     0.20700
C2535       C  0.86390365  0.67153862  0.86730252     0.18800
C2536       C  0.86534119  0.65049702  0.88162577    -0.17700
C2537       C  0.84654025  0.63203598  0.88129751    -0.20000
C2538       C  0.82585431  0.63422515  0.86667013     0.20300
C2539       C  0.80570764  0.61700598  0.86759134    -0.33000
C2540       C  0.78428504  0.62064011  0.85400401     0.01000
C2541       C  0.78401225  0.64050238  0.83829588    -0.24300
C2542       C  0.85925491  0.71394566  0.83931427    -0.28900
C2543       C  0.87868143  0.71303321  0.85541553     0.06700
C2544       C  0.88149668  0.69132062  0.86883027    -0.27600
H2545       H  0.81989618  0.71239739  0.81119788     0.11400
H2546       H  0.78703446  0.68038052  0.81078270     0.12500
H2547       H  0.88069828  0.64862055  0.89351553     0.11600
H2548       H  0.84785134  0.61636759  0.89294088     0.10800
H2549       H  0.80593967  0.60188890  0.87988517     0.16200
H2550       H  0.76761469  0.64334310  0.82772580     0.12100
H2551       H  0.85706143  0.73052270  0.82882173     0.15000
H2552       H  0.89628891  0.69054744  0.88139596     0.14800
C2553       C  0.69680206  0.63221580  0.71148424    -0.18100
C2554       C  0.70400053  0.62216655  0.73235802    -0.20300
C2555       C  0.69626027  0.63355895  0.75259142     0.20400
C2556       C  0.68246889  0.65613167  0.75189041    -0.03200
C2557       C  0.67492691  0.66608266  0.73085131    -0.06300
C2558       C  0.68160419  0.65367117  0.71058215     0.20700
C2559       C  0.65901400  0.68722958  0.73020493     0.18800
C2560       C  0.65244474  0.69939383  0.75041599    -0.17700
C2561       C  0.66033381  0.68979655  0.77127589    -0.20000
C2562       C  0.67460714  0.66771721  0.77221660     0.20300
C2563       C  0.67957217  0.65602045  0.79302346    -0.33000
C2564       C  0.69131538  0.63248859  0.79352589     0.01000
C2565       C  0.70053309  0.62185887  0.77343445    -0.24300
C2566       C  0.67119843  0.66163300  0.69000670    -0.28900
C2567       C  0.65347775  0.68104691  0.68973463     0.06700
C2568       C  0.64827912  0.69450921  0.70959159    -0.27600
H2569       H  0.70213221  0.62253284  0.69609205     0.11400
H2570       H  0.71478045  0.60494425  0.73268527     0.12500
H2571       H  0.64038485  0.71575083  0.75014235     0.11600
H2572       H  0.65426492  0.69897128  0.78670089     0.10800
H2573       H  0.67247653  0.66414123  0.80859255     0.16200
H2574       H  0.70991005  0.60381720  0.77396757     0.12100
H2575       H  0.67475162  0.65103583  0.67466754     0.15000
H2576       H  0.63436375  0.70935308  0.70924332     0.14800
C2577       C  0.73656811  0.52544980  0.71392824    -0.18100
C2578       C  0.73592091  0.53887813  0.73424200    -0.20300
C2579       C  0.73843202  0.52640923  0.75506384     0.20400
C2580       C  0.74271842  0.50028692  0.75543688    -0.03200
C2581       C  0.74298105  0.48665794  0.73492201    -0.06300
C2582       C  0.73948083  0.49929828  0.71411232     0.20700
C2583       C  0.74512377  0.46026132  0.73534649     0.18800
C2584       C  0.74854850  0.44793179  0.75615618    -0.17700
C2585       C  0.74870856  0.46148725  0.77646580    -0.20000
C2586       C  0.74514593  0.48757734  0.77635094     0.20300
C2587       C  0.74231833  0.50093984  0.79673211    -0.33000
C2588       C  0.73638952  0.52659501  0.79630158     0.01000
C2589       C  0.73516400  0.53933669  0.77550622    -0.24300
C2590       C  0.73730476  0.48544526  0.69402357    -0.28900
C2591       C  0.73775143  0.45915114  0.69456742     0.06700
C2592       C  0.74222675  0.44662941  0.71514041    -0.27600
H2593       H  0.73386798  0.53542095  0.69811091     0.11400
H2594       H  0.73272863  0.55893439  0.73369380     0.12500
H2595       H  0.75036981  0.42770372  0.75678546     0.11600
H2596       H  0.75066936  0.45143383  0.79232774     0.10800
H2597       H  0.74275379  0.49107415  0.81280145     0.16200
H2598       H  0.73028820  0.55908268  0.77525985     0.12100
H2599       H  0.73323967  0.49499548  0.67821081     0.15000
H2600       H  0.74208366  0.42629848  0.71555933     0.14800
C2601       C  0.59955598  0.44221496  0.87450468    -0.18100
C2602       C  0.60971259  0.46646426  0.87467165    -0.20300
C2603       C  0.63571389  0.47008410  0.87687145     0.20400
C2604       C  0.65140686  0.44916243  0.88043828    -0.03200
C2605       C  0.64111461  0.42468379  0.88049608    -0.06300
C2606       C  0.61519433  0.42114531  0.87668093     0.20700
C2607       C  0.65699931  0.40371982  0.88310226     0.18800
C2608       C  0.68279356  0.40740192  0.88651210    -0.17700
C2609       C  0.69299200  0.43158231  0.88623049    -0.20000
C2610       C  0.67756705  0.45255785  0.88269406     0.20300
C2611       C  0.68801149  0.47663198  0.88012183    -0.33000
C2612       C  0.67270776  0.49737833  0.87492805     0.01000
C2613       C  0.64642600  0.49403143  0.87427507    -0.24300
C2614       C  0.60568610  0.39667945  0.87389699    -0.28900
C2615       C  0.62172899  0.37573279  0.87534979     0.06700
C2616       C  0.64711120  0.37943747  0.88097691    -0.27600
H2617       H  0.57956711  0.43992378  0.87191713     0.11400
H2618       H  0.59732324  0.48234584  0.87220525     0.12500
H2619       H  0.69524015  0.39150293  0.88862015     0.11600
H2620       H  0.71308374  0.43381312  0.88811752     0.10800
H2621       H  0.70820754  0.47889527  0.88073334     0.16200
H2622       H  0.63434489  0.50987293  0.87057950     0.12100
H2623       H  0.58604990  0.39396753  0.86980876     0.15000
H2624       H  0.65961200  0.36343720  0.88207137     0.14800
C2625       C  0.86452046  0.65593983  0.10605301    -0.18100
C2626       C  0.84610098  0.63705099  0.10565596    -0.20300
C2627       C  0.82504694  0.63831139  0.12000211     0.20400
C2628       C  0.82311918  0.65849486  0.13539746    -0.03200
C2629       C  0.84163351  0.67752452  0.13577273    -0.06300
C2630       C  0.86228332  0.67653812  0.12078047     0.20700
C2631       C  0.83884384  0.69810845  0.15054631     0.18800
C2632       C  0.81825242  0.69919849  0.16528622    -0.17700
C2633       C  0.80003381  0.68045257  0.16492961    -0.20000
C2634       C  0.80210873  0.66030118  0.14983198     0.20300
C2635       C  0.78286036  0.64263080  0.14828270    -0.33000
C2636       C  0.78376888  0.62317484  0.13227495     0.01000
C2637       C  0.80533487  0.62055579  0.11859586    -0.24300
C2638       C  0.87951774  0.69672954  0.12012586    -0.28900
C2639       C  0.87586346  0.71791116  0.13405017     0.06700
C2640       C  0.85596358  0.71792276  0.14965779    -0.27600
H2641       H  0.88022167  0.65472787  0.09444082     0.11400
H2642       H  0.84805295  0.62173845  0.09374931     0.12500
H2643       H  0.81590736  0.71489687  0.17672617     0.11600
H2644       H  0.78397250  0.68204063  0.17610467     0.10800
H2645       H  0.76638864  0.64471158  0.15893326     0.16200
H2646       H  0.80607199  0.60577771  0.10603618     0.12100
H2647       H  0.89471202  0.69666806  0.10791451     0.15000
H2648       H  0.85314409  0.73406834  0.16052653     0.14800
C2649       C  0.59972313  0.44354339  0.12576935    -0.18100
C2650       C  0.60981278  0.46774684  0.12512484    -0.20300
C2651       C  0.63530630  0.47144783  0.12012637     0.20400
C2652       C  0.65060135  0.45064716  0.11499221    -0.03200
C2653       C  0.64036958  0.42618314  0.11553617    -0.06300
C2654       C  0.61492096  0.42262175  0.12133352     0.20700
C2655       C  0.65581551  0.40527126  0.11108486     0.18800
C2656       C  0.68116979  0.40906056  0.10557764    -0.17700
C2657       C  0.69132263  0.43328083  0.10513220    -0.20000
C2658       C  0.67631184  0.45418713  0.11014887     0.20300
C2659       C  0.68677663  0.47838418  0.11137728    -0.33000
C2660       C  0.67189504  0.49909338  0.11759464     0.01000
C2661       C  0.64595788  0.49546441  0.12116055    -0.24300
C2662       C  0.60532967  0.39820799  0.12340219    -0.28900
C2663       C  0.62080939  0.37716595  0.11979591     0.06700
C2664       C  0.64589934  0.38093274  0.11304756    -0.27600
H2665       H  0.58012757  0.44116012  0.13017450     0.11400
H2666       H  0.59779320  0.48354175  0.12906540     0.12500
H2667       H  0.69330380  0.39322884  0.10207464     0.11600
H2668       H  0.71107190  0.43561007  0.10131638     0.10800
H2669       H  0.70672377  0.48085404  0.10858384     0.16200
H2670       H  0.63415298  0.51119217  0.12581810     0.12100
H2671       H  0.58597496  0.39560484  0.12855356     0.15000
H2672       H  0.65808194  0.36492599  0.11038135     0.14800
C2673       C  0.70595829  0.62976125  0.00559772    -0.18100
C2674       C  0.70634503  0.62993922  0.98191998    -0.20300
C2675       C  0.71398755  0.60857967  0.96989874     0.20400
C2676       C  0.72167052  0.58695695  0.98183966    -0.03200
C2677       C  0.72123852  0.58676047  0.00570606    -0.06300
C2678       C  0.71322228  0.60822319  0.01761269     0.20700
C2679       C  0.72861200  0.56501055  0.01762150     0.18800
C2680       C  0.73664602  0.54380034  0.00561878    -0.17700
C2681       C  0.73712665  0.54401319  0.98196251    -0.20000
C2682       C  0.72949927  0.56541199  0.96994977     0.20300
C2683       C  0.72919276  0.56546068  0.94625402    -0.33000
C2684       C  0.72096600  0.58669870  0.93418200     0.01000
C2685       C  0.71371658  0.60832702  0.94616375    -0.24300
C2686       C  0.71252828  0.60775322  0.04131723    -0.28900
C2687       C  0.71975011  0.58609101  0.05334108     0.06700
C2688       C  0.72777136  0.56480040  0.04132237    -0.27600
H2689       H  0.69983085  0.64641941  0.01451232     0.11400
H2690       H  0.70046796  0.64671949  0.97300617     0.12500
H2691       H  0.74244271  0.52699100  0.01452956     0.11600
H2692       H  0.74324851  0.52734928  0.97305212     0.10800
H2693       H  0.73500159  0.54874299  0.93724067     0.16200
H2694       H  0.70755375  0.62488686  0.93705910     0.12100
H2695       H  0.70630580  0.62429267  0.05037264     0.15000
H2696       H  0.73341003  0.54802661  0.05038585     0.14800
C2697       C  0.70586463  0.63641969  0.25280738    -0.18100
C2698       C  0.69700652  0.64624773  0.27323848    -0.20300
C2699       C  0.67654485  0.66279566  0.27339199     0.20400
C2700       C  0.66595787  0.67084303  0.25267510    -0.03200
C2701       C  0.67518934  0.66130953  0.23207481    -0.06300
C2702       C  0.69457398  0.64325957  0.23224875     0.20700
C2703       C  0.66377508  0.66843092  0.21144945     0.18800
C2704       C  0.64398546  0.68576297  0.21152321    -0.17700
C2705       C  0.63452751  0.69485555  0.23198323    -0.20000
C2706       C  0.64495433  0.68696020  0.25259919     0.20300
C2707       C  0.63363172  0.69340666  0.27311658    -0.33000
C2708       C  0.64307432  0.68400830  0.29362462     0.01000
C2709       C  0.66527199  0.66990208  0.29384575    -0.24300
C2710       C  0.70104159  0.63110806  0.21208059    -0.28900
C2711       C  0.68867143  0.63718985  0.19184492     0.06700
C2712       C  0.67107601  0.65669879  0.19132957    -0.27600
H2713       H  0.72092446  0.62276869  0.25315592     0.11400
H2714       H  0.70540052  0.64000374  0.28897916     0.12500
H2715       H  0.63508870  0.69141327  0.19582533     0.11600
H2716       H  0.61848178  0.70734202  0.23171671     0.10800
H2717       H  0.61655328  0.70448448  0.27309566     0.16200
H2718       H  0.67238203  0.66257283  0.30974192     0.12100
H2719       H  0.71469862  0.61602180  0.21227493     0.15000
H2720       H  0.66145030  0.66110317  0.17563472     0.14800
C2721       C  0.75259910  0.53811722  0.25125789    -0.18100
C2722       C  0.75313180  0.52493653  0.27180592    -0.20300
C2723       C  0.74789737  0.49914039  0.27243461     0.20400
C2724       C  0.74331028  0.48627291  0.25193804    -0.03200
C2725       C  0.74296632  0.49954627  0.23116384    -0.06300
C2726       C  0.74695335  0.52573254  0.23092502     0.20700
C2727       C  0.73703931  0.48688754  0.21086178     0.18800
C2728       C  0.73267979  0.46093444  0.21134248    -0.17700
C2729       C  0.73282525  0.44784670  0.23191058    -0.20000
C2730       C  0.73746322  0.46046693  0.25233346     0.20300
C2731       C  0.73473148  0.44812913  0.27320889    -0.33000
C2732       C  0.73793485  0.46113905  0.29370906     0.01000
C2733       C  0.74552143  0.48636191  0.29323691    -0.24300
C2734       C  0.74368891  0.53924097  0.21064288    -0.28900
C2735       C  0.73652826  0.52684565  0.19070327     0.06700
C2736       C  0.73400245  0.50063620  0.19073003    -0.27600
H2737       H  0.75582827  0.55817639  0.25137638     0.11400
H2738       H  0.75675786  0.53511660  0.28732499     0.12500
H2739       H  0.72823998  0.45091402  0.19591010     0.11600
H2740       H  0.72847377  0.42799597  0.23192189     0.10800
H2741       H  0.72864436  0.42872084  0.27359124     0.16200
H2742       H  0.74752927  0.49651450  0.30902664     0.12100
H2743       H  0.74520258  0.55952008  0.21064185     0.15000
H2744       H  0.72805426  0.49119391  0.17539216     0.14800
C2745       C  0.30597969  0.81657474  0.81846384    -0.18100
C2746       C  0.32385173  0.79741758  0.81793532    -0.20300
C2747       C  0.34297588  0.79647684  0.83421594     0.20400
C2748       C  0.34501280  0.81579352  0.85042161    -0.03200
C2749       C  0.32689286  0.83519065  0.85097251    -0.06300
C2750       C  0.30694124  0.83509122  0.83528809     0.20700
C2751       C  0.32785309  0.85374091  0.86802485     0.18800
C2752       C  0.34775543  0.85336571  0.88361882    -0.17700
C2753       C  0.36577101  0.83416230  0.88303223    -0.20000
C2754       C  0.36423266  0.81491351  0.86686475     0.20300
C2755       C  0.38056891  0.79408873  0.86761595    -0.33000
C2756       C  0.37735721  0.77397490  0.85247521     0.01000
C2757       C  0.35912138  0.77578514  0.83536659    -0.24300
C2758       C  0.28741017  0.85247341  0.83755908    -0.28900
C2759       C  0.28731521  0.86996300  0.85533254     0.06700
C2760       C  0.30808295  0.87126169  0.86999077    -0.27600
H2761       H  0.29086428  0.81638296  0.80620700     0.11400
H2762       H  0.32218373  0.78282965  0.80527048     0.12500
H2763       H  0.34893946  0.86747567  0.89675360     0.11600
H2764       H  0.38044021  0.83391706  0.89571972     0.10800
H2765       H  0.39450671  0.79269575  0.88091796     0.16200
H2766       H  0.35671667  0.76039599  0.82357216     0.12100
H2767       H  0.27138339  0.85144188  0.82628389     0.15000
H2768       H  0.30791813  0.88453834  0.88387226     0.14800
C2769       C  0.47443102  0.73120469  0.71109687    -0.18100
C2770       C  0.46002034  0.73013923  0.73088776    -0.20300
C2771       C  0.47164799  0.72931453  0.75218661     0.20400
C2772       C  0.49807843  0.73047930  0.75361322    -0.03200
C2773       C  0.51264978  0.73109163  0.73360244    -0.06300
C2774       C  0.50072217  0.73115093  0.71224769     0.20700
C2775       C  0.53908542  0.73008593  0.73494718     0.18800
C2776       C  0.55071881  0.73003045  0.75627912    -0.17700
C2777       C  0.53628463  0.72991964  0.77611769    -0.20000
C2778       C  0.50997457  0.72952881  0.77496675     0.20300
C2779       C  0.49539209  0.72669411  0.79465435    -0.33000
C2780       C  0.46922615  0.72409873  0.79313242     0.01000
C2781       C  0.45740706  0.72591860  0.77197115    -0.24300
C2782       C  0.51521949  0.72947276  0.69245176    -0.28900
C2783       C  0.54133956  0.72665386  0.69377643     0.06700
C2784       C  0.55326712  0.72755727  0.71499240    -0.27600
H2785       H  0.46500194  0.73118105  0.69484658     0.11400
H2786       H  0.43976754  0.72932405  0.72950792     0.12500
H2787       H  0.57097928  0.72939346  0.75762214     0.11600
H2788       H  0.54571638  0.72923588  0.79235871     0.10800
H2789       H  0.50447651  0.72470375  0.81099018     0.16200
H2790       H  0.43724577  0.72347604  0.77085398     0.12100
H2791       H  0.50603690  0.72809650  0.67611332     0.15000
H2792       H  0.57341293  0.72492519  0.71598345     0.14800
C2793       C  0.36460885  0.68999697  0.73192432    -0.18100
C2794       C  0.35613945  0.67994256  0.71151220    -0.20300
C2795       C  0.33873366  0.66024489  0.71153753     0.20400
C2796       C  0.32850587  0.65162644  0.73221616    -0.03200
C2797       C  0.33671156  0.66208778  0.75278958    -0.06300
C2798       C  0.35555252  0.68067745  0.75259125     0.20700
C2799       C  0.32754750  0.65257795  0.77356699     0.18800
C2800       C  0.30925340  0.63365384  0.77350100    -0.17700
C2801       C  0.30139323  0.62299763  0.75307637    -0.20000
C2802       C  0.31153598  0.63130633  0.73244785     0.20300
C2803       C  0.30643068  0.61859739  0.71224194    -0.33000
C2804       C  0.31782098  0.62626542  0.69192743     0.01000
C2805       C  0.33282023  0.64782544  0.69142017    -0.24300
C2806       C  0.36644083  0.68814856  0.77299170    -0.28900
C2807       C  0.35873774  0.67731393  0.79350339     0.06700
C2808       C  0.33834869  0.66068160  0.79393443    -0.27600
H2809       H  0.37897192  0.70437515  0.73156665     0.11400
H2810       H  0.36407166  0.68676915  0.69576519     0.12500
H2811       H  0.30192849  0.62626448  0.78927955     0.11600
H2812       H  0.28813625  0.60759447  0.75347972     0.10800
H2813       H  0.29461344  0.60203790  0.71245329     0.16200
H2814       H  0.34162799  0.65359669  0.67568523     0.12100
H2815       H  0.38216107  0.70107236  0.77282395     0.15000
H2816       H  0.33262991  0.65221673  0.80983351     0.14800
C2817       C  0.56248721  0.67961701  0.88384957    -0.18100
C2818       C  0.58687752  0.66988542  0.88478359    -0.20300
C2819       C  0.59166703  0.64497751  0.87842047     0.20400
C2820       C  0.57150366  0.62951672  0.87172729    -0.03200
C2821       C  0.54687761  0.63932324  0.87084226    -0.06300
C2822       C  0.54241976  0.66461132  0.87658423     0.20700
C2823       C  0.52689601  0.62405801  0.86344912     0.18800
C2824       C  0.53154108  0.59897380  0.85762786    -0.17700
C2825       C  0.55591248  0.58929855  0.85842410    -0.20000
C2826       C  0.57605167  0.60452867  0.86508303     0.20300
C2827       C  0.60074651  0.59551245  0.86423862    -0.33000
C2828       C  0.62111584  0.61113116  0.86979923     0.01000
C2829       C  0.61633669  0.63560587  0.87764458    -0.24300
C2830       C  0.51818266  0.67467955  0.87422056    -0.28900
C2831       C  0.49830454  0.65983663  0.86604900     0.06700
C2832       C  0.50278966  0.63433793  0.86123985    -0.27600
H2833       H  0.55940078  0.69904992  0.88839660     0.11400
H2834       H  0.60209328  0.68202858  0.89000563     0.12500
H2835       H  0.51639534  0.58697110  0.85198399     0.11600
H2836       H  0.55908839  0.57003948  0.85334905     0.10800
H2837       H  0.60418588  0.57657548  0.85834005     0.16200
H2838       H  0.63187543  0.64784177  0.88185728     0.12100
H2839       H  0.51503567  0.69431401  0.87798931     0.15000
H2840       H  0.48771234  0.62262614  0.85496039     0.14800
C2841       C  0.31408237  0.55519618  0.88937024    -0.18100
C2842       C  0.32441922  0.57939640  0.88959999    -0.20300
C2843       C  0.34902850  0.58357399  0.88189435     0.20400
C2844       C  0.36373447  0.56295248  0.87497019    -0.03200
C2845       C  0.35339713  0.53855305  0.87494595    -0.06300
C2846       C  0.32821978  0.53469369  0.88157539     0.20700
C2847       C  0.36794870  0.51821581  0.86722728     0.18800
C2848       C  0.39285796  0.52213796  0.86042811    -0.17700
C2849       C  0.40297970  0.54626185  0.86022981    -0.20000
C2850       C  0.38840646  0.56681746  0.86697837     0.20300
C2851       C  0.39769747  0.59123422  0.86474718    -0.33000
C2852       C  0.38273945  0.61200667  0.87034869     0.01000
C2853       C  0.35876607  0.60802828  0.87982736    -0.24300
C2854       C  0.31737628  0.51070243  0.87920101    -0.28900
C2855       C  0.33150338  0.49065656  0.87022416     0.06700
C2856       C  0.35706560  0.49448938  0.86527773    -0.27600
H2857       H  0.29480248  0.55263466  0.89471750     0.11400
H2858       H  0.31288041  0.59496278  0.89512258     0.12500
H2859       H  0.40427307  0.50663880  0.85454384     0.11600
H2860       H  0.42199938  0.54892508  0.85419413     0.10800
H2861       H  0.41628488  0.59412732  0.85772853     0.16200
H2862       H  0.34709927  0.62396132  0.88418876     0.12100
H2863       H  0.29771700  0.50800017  0.88321420     0.15000
H2864       H  0.36833889  0.47921499  0.85870317     0.14800
C2865       C  0.34635193  0.86237383  0.10270273    -0.18100
C2866       C  0.36533185  0.84405423  0.10238134    -0.20300
C2867       C  0.36469267  0.82364175  0.11749058     0.20400
C2868       C  0.34516014  0.82233828  0.13365664    -0.03200
C2869       C  0.32601951  0.84075608  0.13394903    -0.06300
C2870       C  0.32629543  0.86067621  0.11812472     0.20700
C2871       C  0.30594289  0.83848841  0.14940236     0.18800
C2872       C  0.30559122  0.81863293  0.16499394    -0.17700
C2873       C  0.32448052  0.80051605  0.16473865    -0.20000
C2874       C  0.34399764  0.80192377  0.14885232     0.20300
C2875       C  0.36150852  0.78248617  0.14714429    -0.33000
C2876       C  0.38015397  0.78274703  0.13031243     0.01000
C2877       C  0.38231268  0.80384037  0.11600966    -0.24300
C2878       C  0.30590190  0.87766581  0.11733780    -0.28900
C2879       C  0.28521907  0.87446568  0.13195497     0.06700
C2880       C  0.28586301  0.85531900  0.14831788    -0.27600
H2881       H  0.34701767  0.87751781  0.09046305     0.11400
H2882       H  0.38016571  0.84550917  0.08989150     0.12500
H2883       H  0.29031454  0.81672618  0.17699751     0.11600
H2884       H  0.32341143  0.78496883  0.17654458     0.10800
H2885       H  0.35983040  0.76631491  0.15822496     0.16200
H2886       H  0.39649979  0.80403118  0.10284726     0.12100
H2887       H  0.30536859  0.89222244  0.10451374     0.15000
H2888       H  0.26998853  0.85282090  0.15961999     0.14800
C2889       C  0.59261272  0.67565724  0.10052132    -0.18100
C2890       C  0.56873879  0.68663296  0.09985697    -0.20300
C2891       C  0.54730816  0.67242908  0.10502702     0.20400
C2892       C  0.54997588  0.64663702  0.11004250    -0.03200
C2893       C  0.57409276  0.63564107  0.11103780    -0.06300
C2894       C  0.59551744  0.65033366  0.10656415     0.20700
C2895       C  0.57680095  0.61025273  0.11750458     0.18800
C2896       C  0.55532691  0.59573044  0.12159928    -0.17700
C2897       C  0.53144930  0.60651938  0.12030701    -0.20000
C2898       C  0.52865657  0.63207505  0.11513451     0.20300
C2899       C  0.50505919  0.64356105  0.11624093    -0.33000
C2900       C  0.50238152  0.66964321  0.11303173     0.01000
C2901       C  0.52348711  0.68379124  0.10648263    -0.24300
C2902       C  0.61947631  0.63974504  0.10914302    -0.28900
C2903       C  0.62235256  0.61489813  0.11687541     0.06700
C2904       C  0.60090444  0.60012375  0.12061593    -0.27600
H2905       H  0.60888142  0.68718482  0.09695143     0.11400
H2906       H  0.56710153  0.70639717  0.09584244     0.12500
H2907       H  0.55701990  0.57616655  0.12634014     0.11600
H2908       H  0.51519850  0.59505842  0.12412403     0.10800
H2909       H  0.48892595  0.63231931  0.12095180     0.16200
H2910       H  0.52168941  0.70383679  0.10388874     0.12100
H2911       H  0.63592379  0.65130428  0.10635194     0.15000
H2912       H  0.60299273  0.58092807  0.12639881     0.14800
C2913       C  0.39889124  0.52887919  0.12570871    -0.18100
C2914       C  0.40896279  0.55310225  0.12628527    -0.20300
C2915       C  0.39454106  0.57377109  0.11939501     0.20400
C2916       C  0.37007742  0.56983497  0.11096720    -0.03200
C2917       C  0.35979400  0.54534843  0.11059580    -0.06300
C2918       C  0.37415549  0.52489268  0.11836401     0.20700
C2919       C  0.33482114  0.54151268  0.10338389     0.18800
C2920       C  0.32085665  0.56207922  0.09548995    -0.17700
C2921       C  0.33111872  0.58628770  0.09564027    -0.20000
C2922       C  0.35549644  0.59045790  0.10383620     0.20300
C2923       C  0.36508153  0.61493713  0.10600575    -0.33000
C2924       C  0.38886433  0.61915905  0.11574233     0.01000
C2925       C  0.40374736  0.59833390  0.12172959    -0.24300
C2926       C  0.36322857  0.50099281  0.11965255    -0.28900
C2927       C  0.33779395  0.49712191  0.11389250     0.06700
C2928       C  0.32394171  0.51745370  0.10512375    -0.27600
H2929       H  0.41022747  0.51333112  0.13163742     0.11400
H2930       H  0.42783945  0.55573112  0.13264678     0.12500
H2931       H  0.30174902  0.55954107  0.08969546     0.11600
H2932       H  0.31968801  0.60187273  0.08995361     0.10800
H2933       H  0.35342115  0.63075162  0.10127230     0.16200
H2934       H  0.42218638  0.60125380  0.12899417     0.12100
H2935       H  0.37431173  0.48562887  0.12633449     0.15000
H2936       H  0.30444905  0.51481472  0.10050971     0.14800
C2937       C  0.45830496  0.72022660  0.97847764    -0.18100
C2938       C  0.45847118  0.72174367  0.00213271    -0.20300
C2939       C  0.43642767  0.71751424  0.01458966     0.20400
C2940       C  0.41403064  0.71149995  0.00309094    -0.03200
C2941       C  0.41385220  0.71000849  0.97920852    -0.06300
C2942       C  0.43607491  0.71451409  0.96686164     0.20700
C2943       C  0.39141003  0.70417980  0.96770967     0.18800
C2944       C  0.36943518  0.69964368  0.98016335    -0.17700
C2945       C  0.36962120  0.70107901  0.00381821    -0.20000
C2946       C  0.39179223  0.70705789  0.01542942     0.20300
C2947       C  0.39210159  0.70860850  0.03915261    -0.33000
C2948       C  0.41435458  0.71460786  0.05082311     0.01000
C2949       C  0.43642506  0.71912241  0.03832624    -0.24300
C2950       C  0.43563910  0.71350235  0.94312400    -0.28900
C2951       C  0.41322322  0.70816437  0.93147068     0.06700
C2952       C  0.39124943  0.70324768  0.94396919    -0.27600
H2953       H  0.47554850  0.72367525  0.96925485     0.11400
H2954       H  0.47585381  0.72629201  0.01069024     0.12500
H2955       H  0.35205503  0.69509945  0.97159856     0.11600
H2956       H  0.35238770  0.69756992  0.01303693     0.10800
H2957       H  0.37495304  0.70511443  0.04851894     0.16200
H2958       H  0.45371706  0.72362258  0.04706742     0.12100
H2959       H  0.45274827  0.71713975  0.93374217     0.15000
H2960       H  0.37390319  0.69892038  0.93524403     0.14800
C2961       C  0.45864254  0.73907697  0.25145790    -0.18100
C2962       C  0.47130274  0.73842996  0.27223198    -0.20300
C2963       C  0.49761563  0.73733110  0.27291740     0.20400
C2964       C  0.51132036  0.73789294  0.25241445    -0.03200
C2965       C  0.49852357  0.73883287  0.23141671    -0.06300
C2966       C  0.47204068  0.73880627  0.23097052     0.20700
C2967       C  0.51218760  0.73827427  0.21089373     0.18800
C2968       C  0.53851130  0.73754527  0.21158613    -0.17700
C2969       C  0.55116004  0.73635800  0.23235015    -0.20000
C2970       C  0.53774366  0.73608413  0.25283171     0.20300
C2971       C  0.55016065  0.73268876  0.27361800    -0.33000
C2972       C  0.53656563  0.73133778  0.29400048     0.01000
C2973       C  0.51037260  0.73428630  0.29362147    -0.24300
C2974       C  0.45947577  0.73685825  0.21012424    -0.28900
C2975       C  0.47298471  0.73512950  0.18971734     0.06700
C2976       C  0.49929284  0.73675793  0.19013120    -0.27600
H2977       H  0.43830094  0.73909945  0.25141825     0.11400
H2978       H  0.46047521  0.73801402  0.28776162     0.12500
H2979       H  0.54931036  0.73707112  0.19603845     0.11600
H2980       H  0.57144887  0.73501505  0.23236528     0.10800
H2981       H  0.57031027  0.72985072  0.27388414     0.16200
H2982       H  0.49984479  0.73256781  0.30926963     0.12100
H2983       H  0.43919781  0.73505092  0.20983338     0.15000
H2984       H  0.50973150  0.73472856  0.17446867     0.14800
C2985       C  0.31282898  0.65303355  0.21534121    -0.18100
C2986       C  0.30444231  0.64405330  0.23626920    -0.20300
C2987       C  0.31640793  0.65138419  0.25634102     0.20400
C2988       C  0.33618261  0.66894637  0.25552764    -0.03200
C2989       C  0.34483823  0.67777889  0.23438470    -0.06300
C2990       C  0.33344730  0.66932085  0.21416870     0.20700
C2991       C  0.36600196  0.69362296  0.23341841     0.18800
C2992       C  0.37725885  0.70183325  0.25356735    -0.17700
C2993       C  0.36851338  0.69327928  0.27455305    -0.20000
C2994       C  0.34846480  0.67626147  0.27568351     0.20300
C2995       C  0.34165804  0.66504100  0.29634572    -0.33000
C2996       C  0.32329804  0.64619429  0.29678756     0.01000
C2997       C  0.31014958  0.64010934  0.27698887    -0.24300
C2998       C  0.34400841  0.67577150  0.19317030    -0.28900
C2999       C  0.36627801  0.68972027  0.19230570     0.06700
C3000       C  0.37659665  0.69945057  0.21234723    -0.27600
H3001       H  0.30386023  0.64641131  0.20002542     0.11400
H3002       H  0.28916157  0.63065120  0.23668947     0.12500
H3003       H  0.39343789  0.71414491  0.25306451     0.11600
H3004       H  0.37808127  0.69915795  0.28981977     0.10800
H3005       H  0.35203108  0.66935171  0.31163630     0.16200
H3006       H  0.29611771  0.62537681  0.27746477     0.12100
H3007       H  0.33627123  0.66807510  0.17769713     0.15000
H3008       H  0.39382141  0.71027260  0.21157034     0.14800
loop_ 
_geom_bond_atom_site_label_1 
_geom_bond_atom_site_label_2 
_geom_bond_distance 
_geom_bond_site_symmetry_2 
_ccdc_geom_bond_type 
Fe1          O17   2.083       .  S
Fe1           O7   2.047       .  S
Fe1          O14   2.070       .  S
Fe1           O6   2.070       .  S
Fe1          O12   1.980       .  S
Fe2           O5   2.056       .  S
Fe2           O9   2.042       .  S
Fe2          O13   2.074       .  S
Fe2          O18   2.042       .  S
Fe2          O12   1.964       .  S
Fe3          O21   2.090       .  S
Fe3           O8   2.102       .  S
Fe3          O15   2.104       .  S
Fe3           O4   2.074       .  S
Fe3          O12   1.992       .  S
O4           C11   1.273       .  A
O5           C19   1.266       .  A
O6           C11   1.272       .  A
O7           C10   1.266       .  A
O8           C20   1.276       .  A
O9           C22   1.265       .  A
C10          O15   1.274       .  A
C10        C2876   1.484       .  S
C11        C2948   1.487       .  S
O13          C16   1.269       .  A
O14          C16   1.268       .  A
C16        C2924   1.492       .  S
O17          C22   1.271       .  A
O18          C20   1.267       .  A
C19          O21   1.272       .  A
C19        C2975   1.476       .  S
C20        C2900   1.488       .  S
C22        C2999   1.469       .  S
Fe23         O39   2.061       .  S
Fe23         O29   2.076       .  S
Fe23         O36   2.081       .  S
Fe23         O28   2.050       .  S
Fe23         O34   1.969       .  S
Fe24         O27   2.051       .  S
Fe24         O31   2.076       .  S
Fe24         O35   2.043       .  S
Fe24         O40   2.069       .  S
Fe24         O34   1.950       .  S
Fe25         O43   2.094       .  S
Fe25         O30   2.071       .  S
Fe25         O37   2.057       .  S
Fe25         O26   2.102       .  S
Fe25         O34   1.970       .  S
O26          C33   1.274       .  A
O27          C41   1.269       .  A
O28          C33   1.267       .  A
O29          C32   1.273       .  A
O30          C42   1.269       .  A
O31          C44   1.272       .  A
C32          O37   1.270       .  A
C32        C2951   1.484       .  S
C33        C2756   1.482       .  S
O35          C38   1.266       .  A
O36          C38   1.270       .  A
C38        C2807   1.464       .  S
O39          C44   1.267       .  A
O40          C42   1.269       .  A
C41          O43   1.276       .  A
C41        C2831   1.488       .  S
C42        C2780   1.470       .  S
C44        C2852   1.482       .  S
Fe45         O61   2.073       .  S
Fe45         O51   2.038       .  S
Fe45         O58   2.052       .  S
Fe45         O50   2.061       .  S
Fe45         O56   1.965       .  S
Fe46         O49   2.072       .  S
Fe46         O53   2.048       .  S
Fe46         O57   2.087       .  S
Fe46         O62   2.045       .  S
Fe46         O56   1.955       .  S
Fe47         O65   2.075       .  S
Fe47         O52   2.111       .  S
Fe47         O59   2.115       .  S
Fe47         O48   2.061       .  S
Fe47         O56   1.974       .  S
O48          C55   1.271       .  A
O49          C63   1.268       .  A
O50          C55   1.270       .  A
O51          C54   1.266       .  A
O52          C64   1.280       .  A
O53          C66   1.268       .  A
C54          O59   1.276       .  A
C54        C2636   1.486       .  S
C55        C2687   1.479       .  S
O57          C60   1.271       .  A
O58          C60   1.265       .  A
C60        C2903   1.483       .  S
O61          C66   1.270       .  A
O62          C64   1.269       .  A
C63          O65   1.269       .  A
C63        C2735   1.473       .  S
C64        C2660   1.491       .  S
C66        C2711   1.461       .  S
Fe67         O83   2.072       .  S
Fe67         O73   2.067       .  S
Fe67         O80   2.073       .  S
Fe67         O72   2.049       .  S
Fe67         O78   1.980       .  S
Fe68         O71   2.056       .  S
Fe68         O75   2.062       .  S
Fe68         O79   2.046       .  S
Fe68         O84   2.055       .  S
Fe68         O78   1.962       .  S
Fe69         O87   2.107       .  S
Fe69         O74   2.075       .  S
Fe69         O81   2.057       .  S
Fe69         O70   2.104       .  S
Fe69         O78   1.983       .  S
O70          C77   1.275       .  A
O71          C85   1.269       .  A
O72          C77   1.266       .  A
O73          C76   1.271       .  A
O74          C86   1.268       .  A
O75          C88   1.267       .  A
C76          O81   1.270       .  A
C76        C2684   1.480       .  S
C77        C2540   1.486       .  S
O79          C82   1.267       .  A
O80          C82   1.270       .  A
C82        C2564   1.467       .  S
O83          C88   1.268       .  A
O84          C86   1.265       .  A
C85          O87   1.279       .  A
C85        C2612   1.493       .  S
C86        C2588   1.471       .  S
C88        C2828   1.486       .  S
Fe89        O105   2.067       .  S
Fe89         O95   2.050       .  S
Fe89        O102   2.075       .  S
Fe89         O94   2.062       .  S
Fe89        O100   1.982       .  S
Fe90         O93   2.039       .  S
Fe90         O97   2.057       .  S
Fe90        O101   2.059       .  S
Fe90        O106   2.058       .  S
Fe90        O100   1.966       .  S
Fe91        O109   2.086       .  S
Fe91         O96   2.078       .  S
Fe91        O103   2.084       .  S
Fe91         O92   2.076       .  S
Fe91        O100   1.995       .  S
O92          C99   1.274       .  A
O93         C107   1.264       .  A
O94          C99   1.271       .  A
O95          C98   1.266       .  A
O96         C108   1.271       .  A
O97         C110   1.268       .  A
C98         O103   1.269       .  A
C98        C2420   1.474       .  S
C99        C2468   1.482       .  S
O101        C104   1.267       .  A
O102        C104   1.269       .  A
C104       C2663   1.488       .  S
O105        C110   1.268       .  A
O106        C108   1.269       .  A
C107        O109   1.271       .  A
C107       C2516   1.469       .  S
C108       C2447   1.483       .  S
C110       C2495   1.465       .  S
Fe111       O127   2.065       .  S
Fe111       O117   2.067       .  S
Fe111       O124   2.075       .  S
Fe111       O116   2.054       .  S
Fe111       O122   1.974       .  S
Fe112       O115   2.042       .  S
Fe112       O119   2.084       .  S
Fe112       O123   2.045       .  S
Fe112       O128   2.071       .  S
Fe112       O122   1.961       .  S
Fe113       O131   2.097       .  S
Fe113       O118   2.080       .  S
Fe113       O125   2.069       .  S
Fe113       O114   2.101       .  S
Fe113       O122   1.983       .  S
O114        C121   1.273       .  A
O115        C129   1.267       .  A
O116        C121   1.266       .  A
O117        C120   1.272       .  A
O118        C130   1.272       .  A
O119        C132   1.271       .  A
C120        O125   1.272       .  A
C120       C2471   1.484       .  S
C121       C2324   1.480       .  S
O123        C126   1.266       .  A
O124        C126   1.269       .  A
C126       C2348   1.463       .  S
O127        C132   1.268       .  A
O128        C130   1.270       .  A
C129        O131   1.275       .  A
C129       C2396   1.487       .  S
C130       C2372   1.475       .  S
C132       C2615   1.487       .  S
Fe133       O149   2.087       .  S
Fe133       O139   2.045       .  S
Fe133       O146   2.055       .  S
Fe133       O138   2.077       .  S
Fe133       O144   1.959       .  S
Fe134       O137   2.068       .  S
Fe134       O141   2.047       .  S
Fe134       O145   2.074       .  S
Fe134       O150   2.044       .  S
Fe134       O144   1.944       .  S
Fe135       O153   2.073       .  S
Fe135       O140   2.126       .  S
Fe135       O147   2.119       .  S
Fe135       O136   2.056       .  S
Fe135       O144   1.963       .  S
O136        C143   1.271       .  A
O137        C151   1.268       .  A
O138        C143   1.274       .  A
O139        C142   1.266       .  A
O140        C152   1.282       .  A
O141        C154   1.268       .  A
C142        O147   1.278       .  A
C142       C2228   1.488       .  S
C143       C2255   1.480       .  S
O145        C148   1.270       .  A
O146        C148   1.266       .  A
C148       C2444   1.476       .  S
O149        C154   1.273       .  A
O150        C152   1.268       .  A
C151        O153   1.269       .  A
C151       C2276   1.468       .  S
C152       C2927   1.496       .  S
C154       C2303   1.469       .  S
Fe155       O171   2.054       .  S
Fe155       O161   2.059       .  S
Fe155       O168   2.062       .  S
Fe155       O160   2.036       .  S
Fe155       O166   1.981       .  S
Fe156       O159   2.050       .  S
Fe156       O163   2.075       .  S
Fe156       O167   2.047       .  S
Fe156       O172   2.054       .  S
Fe156       O166   1.964       .  S
Fe157       O175   2.095       .  S
Fe157       O162   2.085       .  S
Fe157       O169   2.070       .  S
Fe157       O158   2.092       .  S
Fe157       O166   1.991       .  S
O158        C165   1.272       .  A
O159        C173   1.271       .  A
O160        C165   1.264       .  A
O161        C164   1.269       .  A
O162        C174   1.269       .  A
O163        C176   1.269       .  A
C164        O169   1.272       .  A
C164       C2252   1.483       .  S
C165       C2159   1.476       .  S
O167        C170   1.267       .  A
O168        C170   1.268       .  A
C170       C2204   1.457       .  S
O171        C176   1.264       .  A
O172        C174   1.264       .  A
C173        O175   1.276       .  A
C173       C2855   1.489       .  S
C174       C2180   1.475       .  S
C176       C2399   1.485       .  S
Fe177       O193   2.080       .  S
Fe177       O183   2.037       .  S
Fe177       O190   2.057       .  S
Fe177       O182   2.071       .  S
Fe177       O188   1.974       .  S
Fe178       O181   2.054       .  S
Fe178       O185   2.044       .  S
Fe178       O189   2.072       .  S
Fe178       O194   2.047       .  S
Fe178       O188   1.958       .  S
Fe179       O197   2.090       .  S
Fe179       O184   2.109       .  S
Fe179       O191   2.108       .  S
Fe179       O180   2.081       .  S
Fe179       O188   1.984       .  S
O180        C187   1.273       .  A
O181        C195   1.266       .  A
O182        C187   1.272       .  A
O183        C186   1.265       .  A
O184        C196   1.279       .  A
O185        C198   1.264       .  A
C186        O191   1.276       .  A
C186       C2060   1.478       .  S
C187       C2132   1.493       .  S
O189        C192   1.270       .  A
O190        C192   1.266       .  A
C192       C2111   1.478       .  S
O193        C198   1.269       .  A
O194        C196   1.268       .  A
C195        O197   1.272       .  A
C195       C2732   1.477       .  S
C196       C2087   1.495       .  S
C198       C2492   1.466       .  S
Fe199       O215   2.071       .  S
Fe199       O205   2.082       .  S
Fe199       O212   2.084       .  S
Fe199       O204   2.047       .  S
Fe199       O210   1.981       .  S
Fe200       O203   2.051       .  S
Fe200       O207   2.073       .  S
Fe200       O211   2.042       .  S
Fe200       O216   2.057       .  S
Fe200       O210   1.966       .  S
Fe201       O219   2.088       .  S
Fe201       O206   2.078       .  S
Fe201       O213   2.069       .  S
Fe201       O202   2.092       .  S
Fe201       O210   1.989       .  S
O202        C209   1.271       .  A
O203        C217   1.270       .  A
O204        C209   1.266       .  A
O205        C208   1.275       .  A
O206        C218   1.269       .  A
O207        C220   1.269       .  A
C208        O213   1.272       .  A
C208       C2135   1.491       .  S
C209       C1988   1.478       .  S
O211        C214   1.266       .  A
O212        C214   1.272       .  A
C214       C2351   1.467       .  S
O215        C220   1.268       .  A
O216        C218   1.265       .  A
C217        O219   1.275       .  A
C217       C2012   1.487       .  S
C218       C2591   1.471       .  S
C220       C2036   1.491       .  S
Fe221       O237   2.079       .  S
Fe221       O227   2.052       .  S
Fe221       O234   2.072       .  S
Fe221       O226   2.070       .  S
Fe221       O232   1.972       .  S
Fe222       O225   2.061       .  S
Fe222       O229   2.038       .  S
Fe222       O233   2.071       .  S
Fe222       O238   2.039       .  S
Fe222       O232   1.955       .  S
Fe223       O241   2.085       .  S
Fe223       O228   2.101       .  S
Fe223       O235   2.098       .  S
Fe223       O224   2.072       .  S
Fe223       O232   1.982       .  S
O224        C231   1.272       .  A
O225        C239   1.265       .  A
O226        C231   1.272       .  A
O227        C230   1.267       .  A
O228        C240   1.278       .  A
O229        C242   1.267       .  A
C230        O235   1.274       .  A
C230       C1916   1.484       .  S
C231       C1964   1.487       .  S
O233        C236   1.268       .  A
O234        C236   1.267       .  A
C236       C2084   1.491       .  S
O237        C242   1.272       .  A
O238        C240   1.269       .  A
C239        O241   1.270       .  A
C239       C2972   1.477       .  S
C240       C1940   1.485       .  S
C242       C2708   1.464       .  S
Fe243       O259   2.071       .  S
Fe243       O249   2.065       .  S
Fe243       O256   2.078       .  S
Fe243       O248   2.050       .  S
Fe243       O254   1.981       .  S
Fe244       O247   2.048       .  S
Fe244       O251   2.063       .  S
Fe244       O255   2.039       .  S
Fe244       O260   2.050       .  S
Fe244       O254   1.961       .  S
Fe245       O263   2.107       .  S
Fe245       O250   2.080       .  S
Fe245       O257   2.070       .  S
Fe245       O246   2.102       .  S
Fe245       O254   1.989       .  S
O246        C253   1.275       .  A
O247        C261   1.269       .  A
O248        C253   1.268       .  A
O249        C252   1.270       .  A
O250        C262   1.269       .  A
O251        C264   1.269       .  A
C252        O257   1.270       .  A
C252       C1967   1.485       .  S
C253       C1868   1.480       .  S
O255        C258   1.264       .  A
O256        C258   1.269       .  A
C258       C2567   1.462       .  S
O259        C264   1.269       .  A
O260        C262   1.264       .  A
C261        O263   1.279       .  A
C261       C1895   1.494       .  S
C262       C2783   1.471       .  S
C264       C2015   1.484       .  S
Fe265       O281   2.080       .  S
Fe265       O271   2.043       .  S
Fe265       O278   2.061       .  S
Fe265       O270   2.064       .  S
Fe265       O276   1.979       .  S
Fe266       O269   2.055       .  S
Fe266       O273   2.043       .  S
Fe266       O277   2.069       .  S
Fe266       O282   2.044       .  S
Fe266       O276   1.962       .  S
Fe267       O285   2.076       .  S
Fe267       O272   2.104       .  S
Fe267       O279   2.109       .  S
Fe267       O268   2.062       .  S
Fe267       O276   1.991       .  S
O268        C275   1.270       .  A
O269        C283   1.267       .  A
O270        C275   1.271       .  A
O271        C274   1.266       .  A
O272        C284   1.276       .  A
O273        C286   1.265       .  A
C274        O279   1.276       .  A
C274       C1796   1.485       .  S
C275       C1847   1.480       .  S
O277        C280   1.269       .  A
O278        C280   1.267       .  A
C280       C1943   1.481       .  S
O281        C286   1.269       .  A
O282        C284   1.267       .  A
C283        O285   1.270       .  A
C283       C2279   1.472       .  S
C284       C1823   1.492       .  S
C286       C2996   1.465       .  S
Fe287       O303   2.066       .  S
Fe287       O293   2.065       .  S
Fe287       O300   2.071       .  S
Fe287       O292   2.043       .  S
Fe287       O298   1.965       .  S
Fe288       O291   2.049       .  S
Fe288       O295   2.080       .  S
Fe288       O299   2.048       .  S
Fe288       O304   2.062       .  S
Fe288       O298   1.956       .  S
Fe289       O307   2.097       .  S
Fe289       O294   2.080       .  S
Fe289       O301   2.064       .  S
Fe289       O290   2.098       .  S
Fe289       O298   1.976       .  S
O290        C297   1.274       .  A
O291        C305   1.271       .  A
O292        C297   1.267       .  A
O293        C296   1.271       .  A
O294        C306   1.268       .  A
O295        C308   1.269       .  A
C296        O301   1.271       .  A
C296       C1844   1.480       .  S
C297       C1751   1.480       .  S
O299        C302   1.268       .  A
O300        C302   1.271       .  A
C302       C2804   1.463       .  S
O303        C308   1.267       .  A
O304        C306   1.265       .  A
C305        O307   1.278       .  A
C305       C1772   1.484       .  S
C306       C2183   1.474       .  S
C308       C1892   1.491       .  S
Fe309       O325   2.095       .  S
Fe309       O315   2.054       .  S
Fe309       O322   2.069       .  S
Fe309       O314   2.098       .  S
Fe309       O320   1.954       .  S
Fe310       O313   2.063       .  S
Fe310       O317   2.047       .  S
Fe310       O321   2.068       .  S
Fe310       O326   2.041       .  S
Fe310       O320   1.940       .  S
Fe311       O329   2.064       .  S
Fe311       O316   2.108       .  S
Fe311       O323   2.094       .  S
Fe311       O312   2.048       .  S
Fe311       O320   1.958       .  S
O312        C319   1.270       .  A
O313        C327   1.266       .  A
O314        C319   1.278       .  A
O315        C318   1.267       .  A
O316        C328   1.278       .  A
O317        C330   1.268       .  A
C318        O323   1.273       .  A
C318       C1703   1.478       .  S
C319       C1724   1.487       .  S
O321        C324   1.269       .  A
O322        C324   1.269       .  A
C324       C1820   1.484       .  S
O325        C330   1.276       .  A
O326        C328   1.268       .  A
C327        O329   1.266       .  A
C327       C2519   1.461       .  S
C328       C2108   1.486       .  S
C330       C2300   1.471       .  S
Fe331       O347   2.064       .  S
Fe331       O337   2.060       .  S
Fe331       O344   2.065       .  S
Fe331       O336   2.048       .  S
Fe331       O342   1.986       .  S
Fe332       O335   2.051       .  S
Fe332       O339   2.066       .  S
Fe332       O343   2.041       .  S
Fe332       O348   2.059       .  S
Fe332       O342   1.966       .  S
Fe333       O351   2.100       .  S
Fe333       O338   2.086       .  S
Fe333       O345   2.078       .  S
Fe333       O334   2.102       .  S
Fe333       O342   1.988       .  S
O334        C341   1.274       .  A
O335        C349   1.267       .  A
O336        C341   1.265       .  A
O337        C340   1.270       .  A
O338        C350   1.272       .  A
O339        C352   1.269       .  A
C340        O345   1.273       .  A
C340       C1727   1.486       .  S
C341       C1676   1.480       .  S
O343        C346   1.265       .  A
O344        C346   1.266       .  A
C346       C2207   1.459       .  S
O347        C352   1.268       .  A
O348        C350   1.267       .  A
C349        O351   1.276       .  A
C349       C2039   1.494       .  S
C350       C2375   1.476       .  S
C352       C1775   1.480       .  S
Fe353       O369   2.080       .  S
Fe353       O359   2.049       .  S
Fe353       O366   2.064       .  S
Fe353       O358   2.068       .  S
Fe353       O364   1.975       .  S
Fe354       O357   2.053       .  S
Fe354       O361   2.051       .  S
Fe354       O365   2.067       .  S
Fe354       O370   2.051       .  S
Fe354       O364   1.955       .  S
Fe355       O373   2.072       .  S
Fe355       O360   2.099       .  S
Fe355       O367   2.097       .  S
Fe355       O356   2.056       .  S
Fe355       O364   1.980       .  S
O356        C363   1.267       .  A
O357        C371   1.264       .  A
O358        C363   1.269       .  A
O359        C362   1.269       .  A
O360        C372   1.278       .  A
O361        C374   1.267       .  A
C362        O367   1.275       .  A
C362       C1991   1.478       .  S
C363       C1604   1.482       .  S
O365        C368   1.269       .  A
O366        C368   1.267       .  A
C368       C1583   1.483       .  S
O369        C374   1.270       .  A
O370        C372   1.271       .  A
C371        O373   1.266       .  A
C371       C1628   1.467       .  S
C372       C1556   1.490       .  S
C374       C1652   1.467       .  S
Fe375       O391   2.055       .  S
Fe375       O381   2.065       .  S
Fe375       O388   2.072       .  S
Fe375       O380   2.038       .  S
Fe375       O386   1.971       .  S
Fe376       O379   2.055       .  S
Fe376       O383   2.074       .  S
Fe376       O387   2.051       .  S
Fe376       O392   2.066       .  S
Fe376       O386   1.958       .  S
Fe377       O395   2.092       .  S
Fe377       O382   2.069       .  S
Fe377       O389   2.063       .  S
Fe377       O378   2.096       .  S
Fe377       O386   1.981       .  S
O378        C385   1.271       .  A
O379        C393   1.268       .  A
O380        C385   1.263       .  A
O381        C384   1.272       .  A
O382        C394   1.270       .  A
O383        C396   1.270       .  A
C384        O389   1.272       .  A
C384       C1607   1.480       .  S
C385       C2063   1.476       .  S
O387        C390   1.267       .  A
O388        C390   1.269       .  A
C390       C1460   1.465       .  S
O391        C396   1.265       .  A
O392        C394   1.269       .  A
C393        O395   1.274       .  A
C393       C1508   1.488   1_655  S
C394       C1484   1.467       .  S
C396       C1532   1.480       .  S
Fe397       O413   2.092       .  S
Fe397       O403   2.043       .  S
Fe397       O410   2.065       .  S
Fe397       O402   2.087       .  S
Fe397       O408   1.959       .  S
Fe398       O401   2.066       .  S
Fe398       O405   2.049       .  S
Fe398       O409   2.077       .  S
Fe398       O414   2.051       .  S
Fe398       O408   1.946       .  S
Fe399       O417   2.073       .  S
Fe399       O404   2.107       .  S
Fe399       O411   2.104       .  S
Fe399       O400   2.067       .  S
Fe399       O408   1.970       .  S
O400        C407   1.273       .  A
O401        C415   1.268       .  A
O402        C407   1.278       .  A
O403        C406   1.265       .  A
O404        C416   1.278       .  A
O405        C418   1.268       .  A
C406        O411   1.274       .  A
C406       C1748   1.483       .  S
C407       C1391   1.490       .  S
O409        C412   1.270       .  A
O410        C412   1.267       .  A
C412       C1364   1.488       .  S
O413        C418   1.275       .  A
O414        C416   1.270       .  A
C415        O417   1.269       .  A
C415       C1415   1.467       .  S
C416       C1340   1.488       .  S
C418       C1436   1.469       .  S
Fe419       O435   2.073       .  S
Fe419       O425   2.071       .  S
Fe419       O432   2.083       .  S
Fe419       O424   2.044       .  S
Fe419       O430   1.983       .  S
Fe420       O423   2.055       .  S
Fe420       O427   2.061       .  S
Fe420       O431   2.046       .  S
Fe420       O436   2.047       .  S
Fe420       O430   1.966       .  S
Fe421       O439   2.099       .  S
Fe421       O426   2.089       .  S
Fe421       O433   2.080       .  S
Fe421       O422   2.105       .  S
Fe421       O430   1.995       .  S
O422        C429   1.274       .  A
O423        C437   1.269       .  A
O424        C429   1.265       .  A
O425        C428   1.274       .  A
O426        C438   1.271       .  A
O427        C440   1.267       .  A
C428        O433   1.273       .  A
C428       C1388   1.490       .  S
C429       C1799   1.484       .  S
O431        C434   1.267       .  A
O432        C434   1.270       .  A
C434       C1268   1.470       .  S
O435        C440   1.268       .  A
O436        C438   1.265       .  A
C437        O439   1.277       .  A
C437       C1292   1.492       .  S
C438       C1247   1.481       .  S
C440       C1319   1.487       .  S
Fe441       O457   2.067       .  S
Fe441       O447   2.048       .  S
Fe441       O454   2.070       .  S
Fe441       O446   2.063       .  S
Fe441       O452   1.978       .  S
Fe442       O445   2.062       .  S
Fe442       O449   2.050       .  S
Fe442       O453   2.069       .  S
Fe442       O458   2.049       .  S
Fe442       O452   1.965       .  S
Fe443       O461   2.081       .  S
Fe443       O448   2.079       .  S
Fe443       O455   2.090       .  S
Fe443       O444   2.075       .  S
Fe443       O452   1.991       .  S
O444        C451   1.272       .  A
O445        C459   1.268       .  A
O446        C451   1.272       .  A
O447        C450   1.265       .  A
O448        C460   1.271       .  A
O449        C462   1.266       .  A
C450        O455   1.271       .  A
C450       C1871   1.475       .  S
C451       C1175   1.485       .  S
O453        C456   1.269       .  A
O454        C456   1.268       .  A
C456       C1343   1.484       .  S
O457        C462   1.268       .  A
O458        C460   1.267       .  A
C459        O461   1.272       .  A
C459       C1220   1.473       .  S
C460       C1580   1.485       .  S
C462       C1196   1.459       .  S
Fe463       O479   2.070       .  S
Fe463       O469   2.074       .  S
Fe463       O476   2.083       .  S
Fe463       O468   2.046       .  S
Fe463       O474   1.966       .  S
Fe464       O467   2.042       .  S
Fe464       O471   2.072       .  S
Fe464       O475   2.048       .  S
Fe464       O480   2.059       .  S
Fe464       O474   1.951       .  S
Fe465       O483   2.109       .  S
Fe465       O470   2.078       .  S
Fe465       O477   2.073       .  S
Fe465       O466   2.102       .  S
Fe465       O474   1.976       .  S
O466        C473   1.274       .  A
O467        C481   1.270       .  A
O468        C473   1.266       .  A
O469        C472   1.274       .  A
O470        C482   1.268       .  A
O471        C484   1.268       .  A
C472        O477   1.273       .  A
C472       C1172   1.489       .  S
C473       C1919   1.484       .  S
O475        C478   1.269       .  A
O476        C478   1.273       .  A
C478       C1124   1.468       .  S
O479        C484   1.267       .  A
O480        C482   1.265       .  A
C481        O483   1.280       .  A
C481       C1535   1.488       .  S
C482       C1148   1.470       .  S
C484       C1295   1.486       .  S
Fe485       O501   2.079       .  S
Fe485       O491   2.056       .  S
Fe485       O498   2.075       .  S
Fe485       O490   2.073       .  S
Fe485       O496   1.981       .  S
Fe486       O489   2.047       .  S
Fe486       O493   2.049       .  S
Fe486       O497   2.062       .  S
Fe486       O502   2.054       .  S
Fe486       O496   1.960       .  S
Fe487       O505   2.079       .  S
Fe487       O492   2.102       .  S
Fe487       O499   2.096       .  S
Fe487       O488   2.071       .  S
Fe487       O496   1.987       .  S
O488        C495   1.272       .  A
O489        C503   1.263       .  A
O490        C495   1.272       .  A
O491        C494   1.267       .  A
O492        C504   1.277       .  A
O493        C506   1.267       .  A
C494        O499   1.273       .  A
C494       C1679   1.480       .  S
C495       C1052   1.488       .  S
O497        C500   1.268       .  A
O498        C500   1.269       .  A
C500       C1559   1.489       .  S
O501        C506   1.270       .  A
O502        C504   1.270       .  A
C503        O505   1.269       .  A
C503       C1076   1.466       .  S
C504       C1367   1.494   1_545  S
C506       C1100   1.472       .  S
Fe507       O523   2.060       .  S
Fe507       O513   2.071       .  S
Fe507       O520   2.072       .  S
Fe507       O512   2.048       .  S
Fe507       O518   1.983       .  S
Fe508       O511   2.054       .  S
Fe508       O515   2.074       .  S
Fe508       O519   2.052       .  S
Fe508       O524   2.054       .  S
Fe508       O518   1.967       .  S
Fe509       O527   2.092       .  S
Fe509       O514   2.082       .  S
Fe509       O521   2.070       .  S
Fe509       O510   2.093       .  S
Fe509       O518   1.993       .  S
O510        C517   1.272       .  A
O511        C525   1.269       .  A
O512        C517   1.265       .  A
O513        C516   1.271       .  A
O514        C526   1.270       .  A
O515        C528   1.269       .  A
C516        O521   1.271       .  A
C516       C1055   1.488       .  S
C517       C1700   1.475       .  S
O519        C522   1.267       .  A
O520        C522   1.268       .  A
C522       C1031   1.466       .  S
O523        C528   1.267       .  A
O524        C526   1.266       .  A
C525        O527   1.275       .  A
C525       C1316   1.490       .  S
C526       C1004   1.474       .  S
C528       C1511   1.482       .  S
Fe529       O545   2.072       .  S
Fe529       O535   2.063       .  S
Fe529       O542   2.069       .  S
Fe529       O534   2.045       .  S
Fe529       O540   1.985       .  S
Fe530       O533   2.054       .  S
Fe530       O537   2.064       .  S
Fe530       O541   2.050       .  S
Fe530       O546   2.046       .  S
Fe530       O540   1.964       .  S
Fe531       O549   2.093       .  S
Fe531       O536   2.089       .  S
Fe531       O543   2.077       .  S
Fe531       O532   2.091       .  S
Fe531       O540   1.995       .  S
O532        C539   1.270       .  A
O533        C547   1.268       .  A
O534        C539   1.265       .  A
O535        C538   1.271       .  A
O536        C548   1.272       .  A
O537        C550   1.268       .  A
C538        O543   1.274       .  A
C538        C983   1.484       .  S
C539       C2423   1.476       .  S
O541        C544   1.266       .  A
O542        C544   1.267       .  A
C544       C1463   1.463       .  S
O545        C550   1.269       .  A
O546        C548   1.266       .  A
C547        O549   1.274       .  A
C547        C935   1.493       .  S
C548       C1151   1.479       .  S
C550        C956   1.485       .  S
Fe551       O567   2.077       .  S
Fe551       O557   2.045       .  S
Fe551       O564   2.060       .  S
Fe551       O556   2.073       .  S
Fe551       O562   1.975       .  S
Fe552       O555   2.050       .  S
Fe552       O559   2.046       .  S
Fe552       O563   2.067       .  S
Fe552       O568   2.051       .  S
Fe552       O562   1.958       .  S
Fe553       O571   2.079       .  S
Fe553       O558   2.104       .  S
Fe553       O565   2.105       .  S
Fe553       O554   2.065       .  S
Fe553       O562   1.980       .  S
O554        C561   1.272       .  A
O555        C569   1.265       .  A
O556        C561   1.273       .  A
O557        C560   1.265       .  A
O558        C570   1.277       .  A
O559        C572   1.266       .  A
C560        O565   1.274       .  A
C560       C2327   1.479       .  S
C561        C980   1.484       .  S
O563        C566   1.268       .  A
O564        C566   1.267       .  A
C566        C911   1.479       .  S
O567        C572   1.270       .  A
O568        C570   1.269       .  A
C569        O571   1.270       .  A
C569       C1223   1.468       .  S
C570        C884   1.493   1_545  S
C572       C1655   1.469       .  S
Fe573       O589   2.069       .  S
Fe573       O579   2.079       .  S
Fe573       O586   2.090       .  S
Fe573       O578   2.050       .  S
Fe573       O584   1.965       .  S
Fe574       O577   2.040       .  S
Fe574       O581   2.071       .  S
Fe574       O585   2.046       .  S
Fe574       O590   2.061       .  S
Fe574       O584   1.950       .  S
Fe575       O593   2.113       .  S
Fe575       O580   2.080       .  S
Fe575       O587   2.059       .  S
Fe575       O576   2.105       .  S
Fe575       O584   1.973       .  S
O576        C583   1.275       .  A
O577        C591   1.269       .  A
O578        C583   1.269       .  A
O579        C582   1.274       .  A
O580        C592   1.268       .  A
O581        C594   1.268       .  A
C582        O587   1.271       .  A
C582        C863   1.485       .  S
C583       C2639   1.485       .  S
O585        C588   1.268       .  A
O586        C588   1.274       .  A
C588       C1127   1.468       .  S
O589        C594   1.268       .  A
O590        C592   1.266       .  A
C591        O593   1.280       .  A
C591        C839   1.489       .  S
C592       C1244   1.471       .  S
C594        C932   1.486       .  S
Fe595       O611   2.077       .  S
Fe595       O601   2.047       .  S
Fe595       O608   2.067       .  S
Fe595       O600   2.070       .  S
Fe595       O606   1.965       .  S
Fe596       O599   2.062       .  S
Fe596       O603   2.045       .  S
Fe596       O607   2.069       .  S
Fe596       O612   2.046       .  S
Fe596       O606   1.954       .  S
Fe597       O615   2.075       .  S
Fe597       O602   2.109       .  S
Fe597       O609   2.108       .  S
Fe597       O598   2.065       .  S
Fe597       O606   1.974       .  S
O598        C605   1.272       .  A
O599        C613   1.266       .  A
O600        C605   1.273       .  A
O601        C604   1.266       .  A
O602        C614   1.279       .  A
O603        C616   1.268       .  A
C604        O609   1.275       .  A
C604       C2543   1.487       .  S
C605        C860   1.484       .  S
O607        C610   1.268       .  A
O608        C610   1.267       .  A
C610        C887   1.487       .  S
O611        C616   1.272       .  A
O612        C614   1.269       .  A
C613        O615   1.269       .  A
C613       C1412   1.469       .  S
C614        C815   1.488   1_655  S
C616       C1199   1.465       .  S
Fe617       O633   2.060       .  S
Fe617       O623   2.057       .  S
Fe617       O630   2.068       .  S
Fe617       O622   2.043       .  S
Fe617       O628   1.983       .  S
Fe618       O621   2.064       .  S
Fe618       O625   2.077       .  S
Fe618       O629   2.056       .  S
Fe618       O634   2.057       .  S
Fe618       O628   1.969       .  S
Fe619       O637   2.102       .  S
Fe619       O624   2.077       .  S
Fe619       O631   2.071       .  S
Fe619       O620   2.105       .  S
Fe619       O628   1.992       .  S
O620        C627   1.275       .  A
O621        C635   1.271       .  A
O622        C627   1.266       .  A
O623        C626   1.269       .  A
O624        C636   1.270       .  A
O625        C638   1.271       .  A
C626        O631   1.271       .  A
C626        C791   1.482       .  S
C627       C2879   1.483       .  S
O629        C632   1.266       .  A
O630        C632   1.267       .  A
C632       C1271   1.465       .  S
O633        C638   1.268       .  A
O634        C636   1.266       .  A
C635        O637   1.277       .  A
C635        C764   1.498       .  S
C636       C1007   1.470       .  S
C638        C836   1.486       .  S
Fe639       O655   2.075       .  S
Fe639       O645   2.046       .  S
Fe639       O652   2.061       .  S
Fe639       O644   2.065       .  S
Fe639       O650   1.982       .  S
Fe640       O643   2.052       .  S
Fe640       O647   2.045       .  S
Fe640       O651   2.069       .  S
Fe640       O656   2.042       .  S
Fe640       O650   1.965       .  S
Fe641       O659   2.077       .  S
Fe641       O646   2.096       .  S
Fe641       O653   2.099       .  S
Fe641       O642   2.064       .  S
Fe641       O650   1.995       .  S
O642        C649   1.271       .  A
O643        C657   1.267       .  A
O644        C649   1.272       .  A
O645        C648   1.264       .  A
O646        C658   1.273       .  A
O647        C660   1.265       .  A
C648        O653   1.272       .  A
C648       C2759   1.480       .  S
C649        C788   1.481       .  S
O651        C654   1.268       .  A
O652        C654   1.267       .  A
C654        C812   1.482       .  S
O655        C660   1.269       .  A
O656        C658   1.266       .  A
C657        O659   1.271       .  A
C657       C1079   1.468       .  S
C658        C743   1.490       .  S
C660       C1439   1.466       .  S
Fe661       O677   2.074       .  S
Fe661       O667   2.074       .  S
Fe661       O674   2.077       .  S
Fe661       O666   2.056       .  S
Fe661       O672   1.978       .  S
Fe662       O665   2.056       .  S
Fe662       O669   2.076       .  S
Fe662       O673   2.056       .  S
Fe662       O678   2.053       .  S
Fe662       O672   1.966       .  S
Fe663       O681   2.095       .  S
Fe663       O668   2.080       .  S
Fe663       O675   2.073       .  S
Fe663       O664   2.098       .  S
Fe663       O672   1.995       .  S
O664        C671   1.272       .  A
O665        C679   1.271       .  A
O666        C671   1.266       .  A
O667        C670   1.274       .  A
O668        C680   1.269       .  A
O669        C682   1.269       .  A
C670        O675   1.273       .  A
C670        C716   1.487       .  S
C671       C2231   1.484       .  S
O673        C676   1.269       .  A
O674        C676   1.272       .  A
C676       C1028   1.469       .  S
O677        C682   1.268       .  A
O678        C680   1.265       .  A
C679        O681   1.275       .  A
C679        C959   1.489       .  S
C680       C1487   1.469       .  S
C682        C767   1.496       .  S
Fe683       O699   2.070       .  S
Fe683       O689   2.045       .  S
Fe683       O696   2.064       .  S
Fe683       O688   2.061       .  S
Fe683       O694   1.981       .  S
Fe684       O687   2.052       .  S
Fe684       O691   2.053       .  S
Fe684       O695   2.068       .  S
Fe684       O700   2.055       .  S
Fe684       O694   1.967       .  S
Fe685       O703   2.084       .  S
Fe685       O690   2.079       .  S
Fe685       O697   2.083       .  S
Fe685       O686   2.081       .  S
Fe685       O694   1.995       .  S
O686        C693   1.272       .  A
O687        C701   1.265       .  A
O688        C693   1.269       .  A
O689        C692   1.267       .  A
O690        C702   1.273       .  A
O691        C704   1.266       .  A
C692        O697   1.271       .  A
C692       C2156   1.472       .  S
C693        C719   1.488       .  S
O695        C698   1.269       .  A
O696        C698   1.267       .  A
C698        C740   1.486       .  S
O699        C704   1.267       .  A
O700        C702   1.270       .  A
C701        O703   1.270       .  A
C701       C1631   1.477       .  S
C702        C908   1.483       .  S
C704       C1103   1.464       .  S
C705        C706   1.401   1_556  A
C705        C710   1.404       .  A
C705        H721   1.084       .  S
C706        C707   1.405       .  A
C706        H722   1.083       .  S
C707        C717   1.407       .  A
C707        C708   1.411       .  A
C708        C714   1.411       .  A
C708        C709   1.414   1_554  A
C709        C711   1.410       .  A
C709        C710   1.412       .  A
C710        C718   1.408       .  A
C711        C720   1.403       .  A
C711        C712   1.404       .  A
C712        C713   1.399   1_556  A
C712        H723   1.083       .  S
C713        C714   1.403       .  A
C713        H724   1.084       .  S
C714        C715   1.403       .  A
C715        C716   1.408       .  A
C715        H725   1.084       .  S
C716        C717   1.410       .  A
C717        H726   1.084       .  S
C718        C719   1.409       .  A
C718        H727   1.084       .  S
C719        C720   1.409       .  A
C720        H728   1.084       .  S
C729        C730   1.397       .  A
C729        C734   1.403       .  A
C729        H745   1.084       .  S
C730        C731   1.402       .  A
C730        H746   1.084       .  S
C731        C741   1.402       .  A
C731        C732   1.412       .  A
C732        C738   1.410       .  A
C732        C733   1.414       .  A
C733        C735   1.413       .  A
C733        C734   1.408       .  A
C734        C742   1.398   1_545  A
C735        C744   1.411       .  A
C735        C736   1.405       .  A
C736        C737   1.402       .  A
C736        H747   1.083       .  S
C737        C738   1.405       .  A
C737        H748   1.083       .  S
C738        C739   1.407       .  A
C739        C740   1.411       .  A
C739        H749   1.084       .  S
C740        C741   1.407       .  A
C741        H750   1.084       .  S
C742        C743   1.410       .  A
C742        H751   1.084       .  S
C743        C744   1.410   1_565  A
C744        H752   1.084       .  S
C753        C754   1.400       .  A
C753        C758   1.404       .  A
C753        H769   1.084       .  S
C754        C755   1.405       .  A
C754        H770   1.083       .  S
C755        C765   1.406       .  A
C755        C756   1.410       .  A
C756        C762   1.412       .  A
C756        C757   1.418       .  A
C757        C759   1.411       .  A
C757        C758   1.412       .  A
C758        C766   1.408       .  A
C759        C768   1.410       .  A
C759        C760   1.405       .  A
C760        C761   1.403       .  A
C760        H771   1.083       .  S
C761        C762   1.405       .  A
C761        H772   1.083       .  S
C762        C763   1.412       .  A
C763        C764   1.412   1_545  A
C763        H773   1.084       .  S
C764        C765   1.412   1_565  A
C765        H774   1.084   1_545  S
C766        C767   1.410       .  A
C766        H775   1.084       .  S
C767        C768   1.412       .  A
C768        H776   1.084       .  S
C777        C778   1.399   1_554  A
C777        C782   1.403       .  A
C777        H793   1.084       .  S
C778        C779   1.404       .  A
C778        H794   1.083       .  S
C779        C789   1.402       .  A
C779        C780   1.411       .  A
C780        C786   1.411       .  A
C780        C781   1.411   1_556  A
C781        C783   1.410       .  A
C781        C782   1.412       .  A
C782        C790   1.403       .  A
C783        C792   1.400       .  A
C783        C784   1.403       .  A
C784        C785   1.398   1_554  A
C784        H795   1.084       .  S
C785        C786   1.403       .  A
C785        H796   1.084       .  S
C786        C787   1.401       .  A
C787        C788   1.407       .  A
C787        H797   1.084       .  S
C788        C789   1.408       .  A
C789        H798   1.084       .  S
C790        C791   1.407       .  A
C790        H799   1.084       .  S
C791        C792   1.409       .  A
C792        H800   1.084       .  S
C801        C802   1.400       .  A
C801        C806   1.405       .  A
C801        H817   1.084       .  S
C802        C803   1.403       .  A
C802        H818   1.083       .  S
C803        C813   1.406       .  A
C803        C804   1.413       .  A
C804        C810   1.410       .  A
C804        C805   1.413       .  A
C805        C807   1.413       .  A
C805        C806   1.409       .  A
C806        C814   1.403       .  A
C807        C816   1.407       .  A
C807        C808   1.403       .  A
C808        C809   1.399       .  A
C808        H819   1.083       .  S
C809        C810   1.404       .  A
C809        H820   1.084       .  S
C810        C811   1.402       .  A
C811        C812   1.408       .  A
C811        H821   1.084       .  S
C812        C813   1.407       .  A
C813        H822   1.084       .  S
C814        C815   1.411       .  A
C814        H823   1.084   1_455  S
C815        C816   1.408       .  A
C816        H824   1.084       .  S
C825        C826   1.401       .  A
C825        C830   1.404       .  A
C825        H841   1.083       .  S
C826        C827   1.405       .  A
C826        H842   1.084       .  S
C827        C837   1.405       .  A
C827        C828   1.410       .  A
C828        C834   1.413       .  A
C828        C829   1.414       .  A
C829        C831   1.409       .  A
C829        C830   1.413       .  A
C830        C838   1.409       .  A
C831        C840   1.401       .  A
C831        C832   1.404       .  A
C832        C833   1.398       .  A
C832        H843   1.084       .  S
C833        C834   1.403       .  A
C833        H844   1.084       .  S
C834        C835   1.405       .  A
C835        C836   1.407       .  A
C835        H845   1.084       .  S
C836        C837   1.410       .  A
C837        H846   1.084       .  S
C838        C839   1.408   1_455  A
C838        H847   1.084       .  S
C839        C840   1.411   1_655  A
C840        H848   1.084   1_455  S
C849        C850   1.399   1_554  A
C849        C854   1.404       .  A
C849        H865   1.084       .  S
C850        C851   1.403       .  A
C850        H866   1.083       .  S
C851        C861   1.403       .  A
C851        C852   1.412       .  A
C852        C858   1.410       .  A
C852        C853   1.412   1_556  A
C853        C855   1.412       .  A
C853        C854   1.410       .  A
C854        C862   1.402       .  A
C855        C864   1.404       .  A
C855        C856   1.404       .  A
C856        C857   1.399   1_554  A
C856        H867   1.083       .  S
C857        C858   1.403       .  A
C857        H868   1.084       .  S
C858        C859   1.402       .  A
C859        C860   1.409       .  A
C859        H869   1.084       .  S
C860        C861   1.408       .  A
C861        H870   1.084       .  S
C862        C863   1.409       .  A
C862        H871   1.084       .  S
C863        C864   1.409       .  A
C864        H872   1.084       .  S
C873        C874   1.398       .  A
C873        C878   1.403       .  A
C873        H889   1.084       .  S
C874        C875   1.404       .  A
C874        H890   1.084       .  S
C875        C885   1.402       .  A
C875        C876   1.410       .  A
C876        C882   1.412       .  A
C876        C877   1.415       .  A
C877        C879   1.411       .  A
C877        C878   1.411       .  A
C878        C886   1.402       .  A
C879        C888   1.409       .  A
C879        C880   1.405       .  A
C880        C881   1.403       .  A
C880        H891   1.083       .  S
C881        C882   1.405       .  A
C881        H892   1.083       .  S
C882        C883   1.410       .  A
C883        C884   1.411       .  A
C883        H893   1.084       .  S
C884        C885   1.411       .  A
C885        H894   1.084   1_565  S
C886        C887   1.407       .  A
C886        H895   1.084       .  S
C887        C888   1.410       .  A
C888        H896   1.084       .  S
C897        C898   1.398       .  A
C897        C902   1.403       .  A
C897        H913   1.084       .  S
C898        C899   1.403       .  A
C898        H914   1.084       .  S
C899        C909   1.400   1_655  A
C899        C900   1.410       .  A
C900        C906   1.412       .  A
C900        C901   1.412       .  A
C901        C903   1.411       .  A
C901        C902   1.412       .  A
C902        C910   1.402       .  A
C903        C912   1.404       .  A
C903        C904   1.404       .  A
C904        C905   1.400       .  A
C904        H915   1.084       .  S
C905        C906   1.404       .  A
C905        H916   1.083       .  S
C906        C907   1.405       .  A
C907        C908   1.408   1_655  A
C907        H917   1.084       .  S
C908        C909   1.408       .  A
C909        H918   1.084       .  S
C910        C911   1.406       .  A
C910        H919   1.084       .  S
C911        C912   1.408       .  A
C912        H920   1.084       .  S
C921        C922   1.402       .  A
C921        C926   1.405       .  A
C921        H937   1.083       .  S
C922        C923   1.405       .  A
C922        H938   1.083       .  S
C923        C933   1.408       .  A
C923        C924   1.412       .  A
C924        C930   1.412       .  A
C924        C925   1.415       .  A
C925        C927   1.410       .  A
C925        C926   1.412       .  A
C926        C934   1.410       .  A
C927        C936   1.402       .  A
C927        C928   1.404       .  A
C928        C929   1.398       .  A
C928        H939   1.084       .  S
C929        C930   1.403       .  A
C929        H940   1.084       .  S
C930        C931   1.403       .  A
C931        C932   1.408       .  A
C931        H941   1.084       .  S
C932        C933   1.409       .  A
C933        H942   1.084       .  S
C934        C935   1.411   1_565  A
C934        H943   1.084       .  S
C935        C936   1.411   1_545  A
C936        H944   1.084   1_565  S
C945        C946   1.402       .  A
C945        C950   1.405       .  A
C945        H961   1.083       .  S
C946        C947   1.405       .  A
C946        H962   1.084       .  S
C947        C957   1.408       .  A
C947        C948   1.411       .  A
C948        C954   1.412       .  A
C948        C949   1.415       .  A
C949        C951   1.410       .  A
C949        C950   1.412       .  A
C950        C958   1.410       .  A
C951        C960   1.401       .  A
C951        C952   1.403       .  A
C952        C953   1.398       .  A
C952        H963   1.084       .  S
C953        C954   1.403       .  A
C953        H964   1.084       .  S
C954        C955   1.403       .  A
C955        C956   1.407       .  A
C955        H965   1.084       .  S
C956        C957   1.410       .  A
C957        H966   1.084       .  S
C958        C959   1.410   1_655  A
C958        H967   1.084       .  S
C959        C960   1.408   1_455  A
C960        H968   1.084   1_655  S
C969        C970   1.399   1_554  A
C969        C974   1.404       .  A
C969        H985   1.084       .  S
C970        C971   1.404       .  A
C970        H986   1.084       .  S
C971        C981   1.403       .  A
C971        C972   1.411       .  A
C972        C978   1.411       .  A
C972        C973   1.412   1_556  A
C973        C975   1.412       .  A
C973        C974   1.410       .  A
C974        C982   1.402       .  A
C975        C984   1.404       .  A
C975        C976   1.403       .  A
C976        C977   1.399   1_554  A
C976        H987   1.083       .  S
C977        C978   1.403       .  A
C977        H988   1.084       .  S
C978        C979   1.403       .  A
C979        C980   1.408       .  A
C979        H989   1.084       .  S
C980        C981   1.409       .  A
C981        H990   1.084       .  S
C982        C983   1.409       .  A
C982        H991   1.084       .  S
C983        C984   1.407       .  A
C984        H992   1.084       .  S
C993        C994   1.398       .  A
C993        C998   1.403       .  A
C993       H1009   1.084       .  S
C994        C995   1.403       .  A
C994       H1010   1.084       .  S
C995       C1005   1.401       .  A
C995        C996   1.412       .  A
C996       C1002   1.413   1_545  A
C996        C997   1.414   1_545  A
C997        C999   1.413       .  A
C997        C998   1.413   1_565  A
C998       C1006   1.402   1_545  A
C999       C1008   1.407       .  A
C999       C1000   1.404       .  A
C1000      C1001   1.402       .  A
C1000      H1011   1.084       .  S
C1001      C1002   1.405       .  A
C1001      H1012   1.083       .  S
C1002      C1003   1.408   1_565  A
C1003      C1004   1.406       .  A
C1003      H1013   1.084       .  S
C1004      C1005   1.404       .  A
C1005      H1014   1.085       .  S
C1006      C1007   1.402       .  A
C1006      H1015   1.085   1_565  S
C1007      C1008   1.405       .  A
C1008      H1016   1.085       .  S
C1017      C1018   1.398       .  A
C1017      C1022   1.403       .  A
C1017      H1033   1.084       .  S
C1018      C1019   1.403       .  A
C1018      H1034   1.084       .  S
C1019      C1029   1.402       .  A
C1019      C1020   1.413       .  A
C1020      C1026   1.412       .  A
C1020      C1021   1.410       .  A
C1021      C1023   1.413       .  A
C1021      C1022   1.412       .  A
C1022      C1030   1.401       .  A
C1023      C1032   1.403       .  A
C1023      C1024   1.403       .  A
C1024      C1025   1.399       .  A
C1024      H1035   1.083       .  S
C1025      C1026   1.403       .  A
C1025      H1036   1.084       .  S
C1026      C1027   1.402       .  A
C1027      C1028   1.405       .  A
C1027      H1037   1.085       .  S
C1028      C1029   1.403       .  A
C1029      H1038   1.085       .  S
C1030      C1031   1.403       .  A
C1030      H1039   1.085       .  S
C1031      C1032   1.403       .  A
C1032      H1040   1.085       .  S
C1041      C1042   1.399       .  A
C1041      C1046   1.404       .  A
C1041      H1057   1.084       .  S
C1042      C1043   1.404       .  A
C1042      H1058   1.084       .  S
C1043      C1053   1.404       .  A
C1043      C1044   1.411       .  A
C1044      C1050   1.411       .  A
C1044      C1045   1.413       .  A
C1045      C1047   1.411       .  A
C1045      C1046   1.411       .  A
C1046      C1054   1.405       .  A
C1047      C1056   1.404       .  A
C1047      C1048   1.404       .  A
C1048      C1049   1.399       .  A
C1048      H1059   1.083       .  S
C1049      C1050   1.404       .  A
C1049      H1060   1.084       .  S
C1050      C1051   1.405       .  A
C1051      C1052   1.409       .  A
C1051      H1061   1.084       .  S
C1052      C1053   1.410       .  A
C1053      H1062   1.084       .  S
C1054      C1055   1.410       .  A
C1054      H1063   1.084       .  S
C1055      C1056   1.409       .  A
C1056      H1064   1.084       .  S
C1065      C1066   1.399       .  A
C1065      C1070   1.403   1_545  A
C1065      H1081   1.083       .  S
C1066      C1067   1.404       .  A
C1066      H1082   1.084       .  S
C1067      C1077   1.403       .  A
C1067      C1068   1.412   1_545  A
C1068      C1074   1.413       .  A
C1068      C1069   1.412       .  A
C1069      C1071   1.412       .  A
C1069      C1070   1.413       .  A
C1070      C1078   1.405       .  A
C1071      C1080   1.401       .  A
C1071      C1072   1.403       .  A
C1072      C1073   1.399       .  A
C1072      H1083   1.084       .  S
C1073      C1074   1.403       .  A
C1073      H1084   1.083       .  S
C1074      C1075   1.403       .  A
C1075      C1076   1.403   1_565  A
C1075      H1085   1.085       .  S
C1076      C1077   1.404       .  A
C1077      H1086   1.085       .  S
C1078      C1079   1.403       .  A
C1078      H1087   1.084       .  S
C1079      C1080   1.404       .  A
C1080      H1088   1.085       .  S
C1089      C1090   1.400       .  A
C1089      C1094   1.404       .  A
C1089      H1105   1.083       .  S
C1090      C1091   1.404       .  A
C1090      H1106   1.084       .  S
C1091      C1101   1.405       .  A
C1091      C1092   1.414       .  A
C1092      C1098   1.411       .  A
C1092      C1093   1.410       .  A
C1093      C1095   1.414       .  A
C1093      C1094   1.412       .  A
C1094      C1102   1.402       .  A
C1095      C1104   1.401       .  A
C1095      C1096   1.402       .  A
C1096      C1097   1.397       .  A
C1096      H1107   1.083       .  S
C1097      C1098   1.403       .  A
C1097      H1108   1.084       .  S
C1098      C1099   1.398       .  A
C1099      C1100   1.404       .  A
C1099      H1109   1.085       .  S
C1100      C1101   1.405       .  A
C1101      H1110   1.084       .  S
C1102      C1103   1.404       .  A
C1102      H1111   1.085       .  S
C1103      C1104   1.401       .  A
C1104      H1112   1.085       .  S
C1113      C1114   1.398       .  A
C1113      C1118   1.403       .  A
C1113      H1129   1.083       .  S
C1114      C1115   1.403       .  A
C1114      H1130   1.083       .  S
C1115      C1125   1.402       .  A
C1115      C1116   1.413       .  A
C1116      C1122   1.411       .  A
C1116      C1117   1.410       .  A
C1117      C1119   1.413       .  A
C1117      C1118   1.411       .  A
C1118      C1126   1.400       .  A
C1119      C1128   1.403       .  A
C1119      C1120   1.403       .  A
C1120      C1121   1.398       .  A
C1120      H1131   1.083       .  S
C1121      C1122   1.403       .  A
C1121      H1132   1.084       .  S
C1122      C1123   1.400       .  A
C1123      C1124   1.405       .  A
C1123      H1133   1.085       .  S
C1124      C1125   1.402       .  A
C1125      H1134   1.084       .  S
C1126      C1127   1.404       .  A
C1126      H1135   1.085       .  S
C1127      C1128   1.404       .  A
C1128      H1136   1.084       .  S
C1137      C1138   1.396       .  A
C1137      C1142   1.403       .  A
C1137      H1153   1.084       .  S
C1138      C1139   1.402       .  A
C1138      H1154   1.084       .  S
C1139      C1149   1.399   1_545  A
C1139      C1140   1.412   1_545  A
C1140      C1146   1.413       .  A
C1140      C1141   1.413   1_565  A
C1141      C1143   1.414       .  A
C1141      C1142   1.411       .  A
C1142      C1150   1.398       .  A
C1143      C1152   1.411       .  A
C1143      C1144   1.405   1_545  A
C1144      C1145   1.403       .  A
C1144      H1155   1.083       .  S
C1145      C1146   1.405       .  A
C1145      H1156   1.083       .  S
C1146      C1147   1.410       .  A
C1147      C1148   1.406       .  A
C1147      H1157   1.084       .  S
C1148      C1149   1.402       .  A
C1149      H1158   1.085   1_565  S
C1150      C1151   1.406       .  A
C1150      H1159   1.085       .  S
C1151      C1152   1.407       .  A
C1152      H1160   1.084       .  S
C1161      C1162   1.396       .  A
C1161      C1166   1.402       .  A
C1161      H1177   1.084       .  S
C1162      C1163   1.403       .  A
C1162      H1178   1.084       .  S
C1163      C1173   1.400       .  A
C1163      C1164   1.410       .  A
C1164      C1170   1.411       .  A
C1164      C1165   1.413       .  A
C1165      C1167   1.411       .  A
C1165      C1166   1.411       .  A
C1166      C1174   1.400       .  A
C1167      C1176   1.407       .  A
C1167      C1168   1.405       .  A
C1168      C1169   1.402       .  A
C1168      H1179   1.084       .  S
C1169      C1170   1.405       .  A
C1169      H1180   1.083       .  S
C1170      C1171   1.408       .  A
C1171      C1172   1.411       .  A
C1171      H1181   1.084       .  S
C1172      C1173   1.408       .  A
C1173      H1182   1.084       .  S
C1174      C1175   1.407       .  A
C1174      H1183   1.084       .  S
C1175      C1176   1.411       .  A
C1176      H1184   1.084       .  S
C1185      C1186   1.397       .  A
C1185      C1190   1.402       .  A
C1185      H1201   1.083       .  S
C1186      C1187   1.403       .  A
C1186      H1202   1.084       .  S
C1187      C1197   1.400       .  A
C1187      C1188   1.412       .  A
C1188      C1194   1.413       .  A
C1188      C1189   1.409       .  A
C1189      C1191   1.412       .  A
C1189      C1190   1.413       .  A
C1190      C1198   1.400       .  A
C1191      C1200   1.399       .  A
C1191      C1192   1.403       .  A
C1192      C1193   1.398       .  A
C1192      H1203   1.084       .  S
C1193      C1194   1.403       .  A
C1193      H1204   1.083       .  S
C1194      C1195   1.401       .  A
C1195      C1196   1.402       .  A
C1195      H1205   1.085       .  S
C1196      C1197   1.401       .  A
C1197      H1206   1.085       .  S
C1198      C1199   1.402       .  A
C1198      H1207   1.084       .  S
C1199      C1200   1.404       .  A
C1200      H1208   1.085       .  S
C1209      C1210   1.399       .  A
C1209      C1214   1.404       .  A
C1209      H1225   1.083       .  S
C1210      C1211   1.404   1_545  A
C1210      H1226   1.084       .  S
C1211      C1221   1.404       .  A
C1211      C1212   1.412       .  A
C1212      C1218   1.413       .  A
C1212      C1213   1.413       .  A
C1213      C1215   1.413       .  A
C1213      C1214   1.412   1_565  A
C1214      C1222   1.403       .  A
C1215      C1224   1.405   1_565  A
C1215      C1216   1.404       .  A
C1216      C1217   1.400       .  A
C1216      H1227   1.083       .  S
C1217      C1218   1.404       .  A
C1217      H1228   1.084       .  S
C1218      C1219   1.406       .  A
C1219      C1220   1.405       .  A
C1219      H1229   1.084       .  S
C1220      C1221   1.404       .  A
C1221      H1230   1.085       .  S
C1222      C1223   1.405       .  A
C1222      H1231   1.084       .  S
C1223      C1224   1.403       .  A
C1224      H1232   1.084   1_545  S
C1233      C1234   1.397       .  A
C1233      C1238   1.403       .  A
C1233      H1249   1.081       .  S
C1234      C1235   1.402       .  A
C1234      H1250   1.085       .  S
C1235      C1245   1.399   1_455  A
C1235      C1236   1.412       .  A
C1236      C1242   1.413   1_455  A
C1236      C1237   1.414       .  A
C1237      C1239   1.414       .  A
C1237      C1238   1.410       .  A
C1238      C1246   1.399       .  A
C1239      C1248   1.411       .  A
C1239      C1240   1.405   1_455  A
C1240      C1241   1.404       .  A
C1240      H1251   1.084       .  S
C1241      C1242   1.405       .  A
C1241      H1252   1.083       .  S
C1242      C1243   1.411       .  A
C1243      C1244   1.406       .  A
C1243      H1253   1.084       .  S
C1244      C1245   1.402       .  A
C1245      H1254   1.086   1_655  S
C1246      C1247   1.407       .  A
C1246      H1255   1.082       .  S
C1247      C1248   1.407       .  A
C1248      H1256   1.084       .  S
C1257      C1258   1.400       .  A
C1257      C1262   1.404       .  A
C1257      H1273   1.083       .  S
C1258      C1259   1.404       .  A
C1258      H1274   1.084       .  S
C1259      C1269   1.407       .  A
C1259      C1260   1.415       .  A
C1260      C1266   1.410       .  A
C1260      C1261   1.411       .  A
C1261      C1263   1.414       .  A
C1261      C1262   1.411       .  A
C1262      C1270   1.403       .  A
C1263      C1272   1.400       .  A
C1263      C1264   1.402       .  A
C1264      C1265   1.397       .  A
C1264      H1275   1.085       .  S
C1265      C1266   1.403       .  A
C1265      H1276   1.082       .  S
C1266      C1267   1.397       .  A
C1267      C1268   1.404       .  A
C1267      H1277   1.083       .  S
C1268      C1269   1.404       .  A
C1269      H1278   1.085       .  S
C1270      C1271   1.404       .  A
C1270      H1279   1.084       .  S
C1271      C1272   1.401       .  A
C1272      H1280   1.086       .  S
C1281      C1282   1.400       .  A
C1281      C1286   1.404       .  A
C1281      H1297   1.084       .  S
C1282      C1283   1.404       .  A
C1282      H1298   1.084       .  S
C1283      C1293   1.404   1_655  A
C1283      C1284   1.410       .  A
C1284      C1290   1.412       .  A
C1284      C1285   1.416       .  A
C1285      C1287   1.412       .  A
C1285      C1286   1.411       .  A
C1286      C1294   1.405       .  A
C1287      C1296   1.408       .  A
C1287      C1288   1.404       .  A
C1288      C1289   1.401       .  A
C1288      H1299   1.083       .  S
C1289      C1290   1.404       .  A
C1289      H1300   1.083       .  S
C1290      C1291   1.408       .  A
C1291      C1292   1.409   1_655  A
C1291      H1301   1.084       .  S
C1292      C1293   1.412       .  A
C1293      H1302   1.084       .  S
C1294      C1295   1.408       .  A
C1294      H1303   1.084       .  S
C1295      C1296   1.409       .  A
C1296      H1304   1.084       .  S
C1305      C1306   1.398       .  A
C1305      C1310   1.403       .  A
C1305      H1321   1.084       .  S
C1306      C1307   1.403       .  A
C1306      H1322   1.084       .  S
C1307      C1317   1.401       .  A
C1307      C1308   1.410       .  A
C1308      C1314   1.412       .  A
C1308      C1309   1.415       .  A
C1309      C1311   1.411       .  A
C1309      C1310   1.411       .  A
C1310      C1318   1.402       .  A
C1311      C1320   1.408       .  A
C1311      C1312   1.405       .  A
C1312      C1313   1.402       .  A
C1312      H1323   1.083       .  S
C1313      C1314   1.405       .  A
C1313      H1324   1.083       .  S
C1314      C1315   1.410       .  A
C1315      C1316   1.410   1_565  A
C1315      H1325   1.084       .  S
C1316      C1317   1.410   1_545  A
C1317      H1326   1.084   1_565  S
C1318      C1319   1.408       .  A
C1318      H1327   1.084       .  S
C1319      C1320   1.410       .  A
C1320      H1328   1.084       .  S
C1329      C1330   1.402       .  A
C1329      C1334   1.405       .  A
C1329      H1345   1.084       .  S
C1330      C1331   1.405       .  A
C1330      H1346   1.083       .  S
C1331      C1341   1.409       .  A
C1331      C1332   1.412       .  A
C1332      C1338   1.410       .  A
C1332      C1333   1.415       .  A
C1333      C1335   1.413       .  A
C1333      C1334   1.411       .  A
C1334      C1342   1.406       .  A
C1335      C1344   1.404       .  A
C1335      C1336   1.403       .  A
C1336      C1337   1.399       .  A
C1336      H1347   1.083       .  S
C1337      C1338   1.404       .  A
C1337      H1348   1.084       .  S
C1338      C1339   1.403   1_655  A
C1339      C1340   1.409       .  A
C1339      H1349   1.084       .  S
C1340      C1341   1.410   1_455  A
C1341      H1350   1.084       .  S
C1342      C1343   1.410       .  A
C1342      H1351   1.084       .  S
C1343      C1344   1.406       .  A
C1344      H1352   1.084       .  S
C1353      C1354   1.397       .  A
C1353      C1358   1.403       .  A
C1353      H1369   1.084       .  S
C1354      C1355   1.402       .  A
C1354      H1370   1.084       .  S
C1355      C1365   1.401       .  A
C1355      C1356   1.412       .  A
C1356      C1362   1.411       .  A
C1356      C1357   1.416       .  A
C1357      C1359   1.412       .  A
C1357      C1358   1.410       .  A
C1358      C1366   1.400       .  A
C1359      C1368   1.413       .  A
C1359      C1360   1.406       .  A
C1360      C1361   1.404       .  A
C1360      H1371   1.083       .  S
C1361      C1362   1.406       .  A
C1361      H1372   1.083       .  S
C1362      C1363   1.411       .  A
C1363      C1364   1.412       .  A
C1363      H1373   1.084       .  S
C1364      C1365   1.406       .  A
C1365      H1374   1.084       .  S
C1366      C1367   1.410       .  A
C1366      H1375   1.084   1_565  S
C1367      C1368   1.412       .  A
C1368      H1376   1.084       .  S
C1377      C1378   1.403       .  A
C1377      C1382   1.406       .  A
C1377      H1393   1.083       .  S
C1378      C1379   1.406       .  A
C1378      H1394   1.084       .  S
C1379      C1389   1.410       .  A
C1379      C1380   1.412       .  A
C1380      C1386   1.410       .  A
C1380      C1381   1.415       .  A
C1381      C1383   1.411       .  A
C1381      C1382   1.411       .  A
C1382      C1390   1.409       .  A
C1383      C1392   1.401       .  A
C1383      C1384   1.402       .  A
C1384      C1385   1.397       .  A
C1384      H1395   1.084       .  S
C1385      C1386   1.403       .  A
C1385      H1396   1.083       .  S
C1386      C1387   1.401       .  A
C1387      C1388   1.407       .  A
C1387      H1397   1.084       .  S
C1388      C1389   1.412       .  A
C1389      H1398   1.084       .  S
C1390      C1391   1.412       .  A
C1390      H1399   1.084       .  S
C1391      C1392   1.407       .  A
C1392      H1400   1.084       .  S
C1401      C1402   1.400       .  A
C1401      C1406   1.404       .  A
C1401      H1417   1.084       .  S
C1402      C1403   1.404       .  A
C1402      H1418   1.083       .  S
C1403      C1413   1.406   1_455  A
C1403      C1404   1.413   1_455  A
C1404      C1410   1.412       .  A
C1404      C1405   1.413   1_655  A
C1405      C1407   1.413   1_455  A
C1405      C1406   1.413       .  A
C1406      C1414   1.405       .  A
C1407      C1416   1.403   1_655  A
C1407      C1408   1.404       .  A
C1408      C1409   1.399       .  A
C1408      H1419   1.083       .  S
C1409      C1410   1.404       .  A
C1409      H1420   1.084       .  S
C1410      C1411   1.403       .  A
C1411      C1412   1.404       .  A
C1411      H1421   1.085       .  S
C1412      C1413   1.403       .  A
C1413      H1422   1.084   1_655  S
C1414      C1415   1.403       .  A
C1414      H1423   1.085       .  S
C1415      C1416   1.403       .  A
C1416      H1424   1.085       .  S
C1425      C1426   1.398       .  A
C1425      C1430   1.403       .  A
C1425      H1441   1.083       .  S
C1426      C1427   1.403       .  A
C1426      H1442   1.084       .  S
C1427      C1437   1.402       .  A
C1427      C1428   1.414       .  A
C1428      C1434   1.411       .  A
C1428      C1429   1.411       .  A
C1429      C1431   1.414       .  A
C1429      C1430   1.411       .  A
C1430      C1438   1.399       .  A
C1431      C1440   1.405       .  A
C1431      C1432   1.403       .  A
C1432      C1433   1.399       .  A
C1432      H1443   1.084       .  S
C1433      C1434   1.404       .  A
C1433      H1444   1.084       .  S
C1434      C1435   1.402       .  A
C1435      C1436   1.405       .  A
C1435      H1445   1.085       .  S
C1436      C1437   1.402       .  A
C1437      H1446   1.085       .  S
C1438      C1439   1.403       .  A
C1438      H1447   1.085       .  S
C1439      C1440   1.403       .  A
C1440      H1448   1.085       .  S
C1449      C1450   1.397       .  A
C1449      C1454   1.403       .  A
C1449      H1465   1.084       .  S
C1450      C1451   1.403       .  A
C1450      H1466   1.084       .  S
C1451      C1461   1.402       .  A
C1451      C1452   1.414       .  A
C1452      C1458   1.412       .  A
C1452      C1453   1.409       .  A
C1453      C1455   1.414       .  A
C1453      C1454   1.411       .  A
C1454      C1462   1.399       .  A
C1455      C1464   1.403       .  A
C1455      C1456   1.403       .  A
C1456      C1457   1.398       .  A
C1456      H1467   1.083       .  S
C1457      C1458   1.403       .  A
C1457      H1468   1.084       .  S
C1458      C1459   1.400       .  A
C1459      C1460   1.403       .  A
C1459      H1469   1.085       .  S
C1460      C1461   1.402       .  A
C1461      H1470   1.085       .  S
C1462      C1463   1.403       .  A
C1462      H1471   1.085       .  S
C1463      C1464   1.402       .  A
C1464      H1472   1.084       .  S
C1473      C1474   1.398       .  A
C1473      C1478   1.403       .  A
C1473      H1489   1.084       .  S
C1474      C1475   1.403       .  A
C1474      H1490   1.083       .  S
C1475      C1485   1.403   1_455  A
C1475      C1476   1.413   1_455  A
C1476      C1482   1.413       .  A
C1476      C1477   1.413   1_655  A
C1477      C1479   1.413   1_455  A
C1477      C1478   1.412       .  A
C1478      C1486   1.403       .  A
C1479      C1488   1.406   1_655  A
C1479      C1480   1.404       .  A
C1480      C1481   1.400       .  A
C1480      H1491   1.083       .  S
C1481      C1482   1.404       .  A
C1481      H1492   1.084       .  S
C1482      C1483   1.405       .  A
C1483      C1484   1.404       .  A
C1483      H1493   1.085       .  S
C1484      C1485   1.402       .  A
C1485      H1494   1.085   1_655  S
C1486      C1487   1.403       .  A
C1486      H1495   1.085       .  S
C1487      C1488   1.405       .  A
C1488      H1496   1.084   1_455  S
C1497      C1498   1.400       .  A
C1497      C1502   1.404       .  A
C1497      H1513   1.083       .  S
C1498      C1499   1.404       .  A
C1498      H1514   1.084       .  S
C1499      C1509   1.404       .  A
C1499      C1500   1.410       .  A
C1500      C1506   1.412       .  A
C1500      C1501   1.414       .  A
C1501      C1503   1.410       .  A
C1501      C1502   1.413       .  A
C1502      C1510   1.407       .  A
C1503      C1512   1.403       .  A
C1503      C1504   1.404       .  A
C1504      C1505   1.399       .  A
C1504      H1515   1.084       .  S
C1505      C1506   1.404       .  A
C1505      H1516   1.083       .  S
C1506      C1507   1.405       .  A
C1507      C1508   1.408       .  A
C1507      H1517   1.084       .  S
C1508      C1509   1.410       .  A
C1509      H1518   1.084   1_455  S
C1510      C1511   1.407       .  A
C1510      H1519   1.084       .  S
C1511      C1512   1.408       .  A
C1512      H1520   1.084       .  S
C1521      C1522   1.397       .  A
C1521      C1526   1.403       .  A
C1521      H1537   1.084       .  S
C1522      C1523   1.402       .  A
C1522      H1538   1.084       .  S
C1523      C1533   1.402       .  A
C1523      C1524   1.413       .  A
C1524      C1530   1.411       .  A
C1524      C1525   1.413       .  A
C1525      C1527   1.413       .  A
C1525      C1526   1.409       .  A
C1526      C1534   1.399   1_545  A
C1527      C1536   1.409       .  A
C1527      C1528   1.404       .  A
C1528      C1529   1.401       .  A
C1528      H1539   1.083       .  S
C1529      C1530   1.405       .  A
C1529      H1540   1.084       .  S
C1530      C1531   1.405       .  A
C1531      C1532   1.409       .  A
C1531      H1541   1.084       .  S
C1532      C1533   1.404       .  A
C1533      H1542   1.084       .  S
C1534      C1535   1.410       .  A
C1534      H1543   1.084       .  S
C1535      C1536   1.409   1_565  A
C1536      H1544   1.084       .  S
C1545      C1546   1.397       .  A
C1545      C1550   1.403       .  A
C1545      H1561   1.084       .  S
C1546      C1547   1.403       .  A
C1546      H1562   1.084       .  S
C1547      C1557   1.400       .  A
C1547      C1548   1.410       .  A
C1548      C1554   1.412       .  A
C1548      C1549   1.414       .  A
C1549      C1551   1.411       .  A
C1549      C1550   1.411       .  A
C1550      C1558   1.401       .  A
C1551      C1560   1.409       .  A
C1551      C1552   1.405       .  A
C1552      C1553   1.402       .  A
C1552      H1563   1.083       .  S
C1553      C1554   1.405       .  A
C1553      H1564   1.083       .  S
C1554      C1555   1.409       .  A
C1555      C1556   1.410   1_455  A
C1555      H1565   1.084       .  S
C1556      C1557   1.410   1_655  A
C1557      H1566   1.084   1_455  S
C1558      C1559   1.409       .  A
C1558      H1567   1.084       .  S
C1559      C1560   1.410       .  A
C1560      H1568   1.084       .  S
C1569      C1570   1.401       .  A
C1569      C1574   1.405       .  A
C1569      H1585   1.083       .  S
C1570      C1571   1.404       .  A
C1570      H1586   1.083       .  S
C1571      C1581   1.407       .  A
C1571      C1572   1.412       .  A
C1572      C1578   1.410       .  A
C1572      C1573   1.412       .  A
C1573      C1575   1.411       .  A
C1573      C1574   1.411       .  A
C1574      C1582   1.407       .  A
C1575      C1584   1.399       .  A
C1575      C1576   1.402       .  A
C1576      C1577   1.396       .  A
C1576      H1587   1.084       .  S
C1577      C1578   1.403       .  A
C1577      H1588   1.084       .  S
C1578      C1579   1.398   1_545  A
C1579      C1580   1.409       .  A
C1579      H1589   1.084       .  S
C1580      C1581   1.409   1_565  A
C1581      H1590   1.084       .  S
C1582      C1583   1.409       .  A
C1582      H1591   1.084       .  S
C1583      C1584   1.407       .  A
C1584      H1592   1.084       .  S
C1593      C1594   1.399       .  A
C1593      C1598   1.403       .  A
C1593      H1609   1.084       .  S
C1594      C1595   1.404       .  A
C1594      H1610   1.084       .  S
C1595      C1605   1.401       .  A
C1595      C1596   1.410       .  A
C1596      C1602   1.412       .  A
C1596      C1597   1.410       .  A
C1597      C1599   1.410       .  A
C1597      C1598   1.412       .  A
C1598      C1606   1.403       .  A
C1599      C1608   1.399       .  A
C1599      C1600   1.403       .  A
C1600      C1601   1.397       .  A
C1600      H1611   1.084       .  S
C1601      C1602   1.403       .  A
C1601      H1612   1.084       .  S
C1602      C1603   1.402       .  A
C1603      C1604   1.407       .  A
C1603      H1613   1.084       .  S
C1604      C1605   1.408       .  A
C1605      H1614   1.084       .  S
C1606      C1607   1.407       .  A
C1606      H1615   1.084       .  S
C1607      C1608   1.408       .  A
C1608      H1616   1.084       .  S
C1617      C1618   1.400       .  A
C1617      C1622   1.404   1_655  A
C1617      H1633   1.083       .  S
C1618      C1619   1.403       .  A
C1618      H1634   1.084       .  S
C1619      C1629   1.405       .  A
C1619      C1620   1.413   1_655  A
C1620      C1626   1.413       .  A
C1620      C1621   1.413       .  A
C1621      C1623   1.412       .  A
C1621      C1622   1.413       .  A
C1622      C1630   1.407       .  A
C1623      C1632   1.403       .  A
C1623      C1624   1.404       .  A
C1624      C1625   1.399       .  A
C1624      H1635   1.084       .  S
C1625      C1626   1.403       .  A
C1625      H1636   1.084       .  S
C1626      C1627   1.403   1_455  A
C1627      C1628   1.403       .  A
C1627      H1637   1.085   1_655  S
C1628      C1629   1.403       .  A
C1629      H1638   1.085       .  S
C1630      C1631   1.405       .  A
C1630      H1639   1.084       .  S
C1631      C1632   1.406       .  A
C1632      H1640   1.085       .  S
C1641      C1642   1.398       .  A
C1641      C1646   1.403       .  A
C1641      H1657   1.083       .  S
C1642      C1643   1.403       .  A
C1642      H1658   1.084       .  S
C1643      C1653   1.402       .  A
C1643      C1644   1.413       .  A
C1644      C1650   1.412       .  A
C1644      C1645   1.409       .  A
C1645      C1647   1.413       .  A
C1645      C1646   1.411       .  A
C1646      C1654   1.399       .  A
C1647      C1656   1.402       .  A
C1647      C1648   1.403       .  A
C1648      C1649   1.398       .  A
C1648      H1659   1.083       .  S
C1649      C1650   1.403       .  A
C1649      H1660   1.084       .  S
C1650      C1651   1.400       .  A
C1651      C1652   1.403       .  A
C1651      H1661   1.085       .  S
C1652      C1653   1.403       .  A
C1653      H1662   1.085       .  S
C1654      C1655   1.405       .  A
C1654      H1663   1.085       .  S
C1655      C1656   1.403       .  A
C1656      H1664   1.084       .  S
C1665      C1666   1.403       .  A
C1665      C1670   1.405       .  A
C1665      H1681   1.083       .  S
C1666      C1667   1.405       .  A
C1666      H1682   1.083       .  S
C1667      C1677   1.411       .  A
C1667      C1668   1.413       .  A
C1668      C1674   1.412       .  A
C1668      C1669   1.416       .  A
C1669      C1671   1.412       .  A
C1669      C1670   1.413       .  A
C1670      C1678   1.410       .  A
C1671      C1680   1.404       .  A
C1671      C1672   1.404       .  A
C1672      C1673   1.399       .  A
C1672      H1683   1.084       .  S
C1673      C1674   1.404       .  A
C1673      H1684   1.084       .  S
C1674      C1675   1.404       .  A
C1675      C1676   1.406       .  A
C1675      H1685   1.085       .  S
C1676      C1677   1.406       .  A
C1677      H1686   1.084       .  S
C1678      C1679   1.406       .  A
C1678      H1687   1.084       .  S
C1679      C1680   1.406       .  A
C1680      H1688   1.085       .  S
C1689      C1690   1.398       .  A
C1689      C1694   1.403       .  A
C1689      H1705   1.084       .  S
C1690      C1691   1.403       .  A
C1690      H1706   1.084       .  S
C1691      C1701   1.402       .  A
C1691      C1692   1.411       .  A
C1692      C1698   1.413       .  A
C1692      C1693   1.414       .  A
C1693      C1695   1.413       .  A
C1693      C1694   1.412       .  A
C1694      C1702   1.402       .  A
C1695      C1704   1.408       .  A
C1695      C1696   1.404       .  A
C1696      C1697   1.402       .  A
C1696      H1707   1.083       .  S
C1697      C1698   1.404       .  A
C1697      H1708   1.083       .  S
C1698      C1699   1.409       .  A
C1699      C1700   1.405       .  A
C1699      H1709   1.084       .  S
C1700      C1701   1.405       .  A
C1701      H1710   1.085       .  S
C1702      C1703   1.406       .  A
C1702      H1711   1.085       .  S
C1703      C1704   1.406       .  A
C1704      H1712   1.084       .  S
C1713      C1714   1.398       .  A
C1713      C1718   1.403       .  A
C1713      H1729   1.084       .  S
C1714      C1715   1.404       .  A
C1714      H1730   1.083       .  S
C1715      C1725   1.400       .  A
C1715      C1716   1.409       .  A
C1716      C1722   1.413       .  A
C1716      C1717   1.413       .  A
C1717      C1719   1.409       .  A
C1717      C1718   1.413       .  A
C1718      C1726   1.404       .  A
C1719      C1728   1.402       .  A
C1719      C1720   1.404       .  A
C1720      C1721   1.400       .  A
C1720      H1731   1.084       .  S
C1721      C1722   1.404       .  A
C1721      H1732   1.084       .  S
C1722      C1723   1.406       .  A
C1723      C1724   1.408       .  A
C1723      H1733   1.084       .  S
C1724      C1725   1.410       .  A
C1725      H1734   1.084       .  S
C1726      C1727   1.407       .  A
C1726      H1735   1.084       .  S
C1727      C1728   1.411       .  A
C1728      H1736   1.084       .  S
C1737      C1738   1.404       .  A
C1737      C1742   1.405       .  A
C1737      H1753   1.083       .  S
C1738      C1739   1.406       .  A
C1738      H1754   1.083       .  S
C1739      C1749   1.412       .  A
C1739      C1740   1.413       .  A
C1740      C1746   1.411       .  A
C1740      C1741   1.414       .  A
C1741      C1743   1.411       .  A
C1741      C1742   1.413       .  A
C1742      C1750   1.412       .  A
C1743      C1752   1.398       .  A
C1743      C1744   1.402       .  A
C1744      C1745   1.396       .  A
C1744      H1755   1.084       .  S
C1745      C1746   1.402       .  A
C1745      H1756   1.084       .  S
C1746      C1747   1.399       .  A
C1747      C1748   1.406       .  A
C1747      H1757   1.085       .  S
C1748      C1749   1.409       .  A
C1749      H1758   1.084       .  S
C1750      C1751   1.408       .  A
C1750      H1759   1.084       .  S
C1751      C1752   1.405       .  A
C1752      H1760   1.085       .  S
C1761      C1762   1.398       .  A
C1761      C1766   1.403       .  A
C1761      H1777   1.084       .  S
C1762      C1763   1.403       .  A
C1762      H1778   1.084       .  S
C1763      C1773   1.401       .  A
C1763      C1764   1.410       .  A
C1764      C1770   1.412       .  A
C1764      C1765   1.412       .  A
C1765      C1767   1.411       .  A
C1765      C1766   1.412       .  A
C1766      C1774   1.402       .  A
C1767      C1776   1.405       .  A
C1767      C1768   1.404       .  A
C1768      C1769   1.400       .  A
C1768      H1779   1.083       .  S
C1769      C1770   1.404       .  A
C1769      H1780   1.084       .  S
C1770      C1771   1.405       .  A
C1771      C1772   1.408       .  A
C1771      H1781   1.084       .  S
C1772      C1773   1.409       .  A
C1773      H1782   1.084       .  S
C1774      C1775   1.406       .  A
C1774      H1783   1.084       .  S
C1775      C1776   1.408       .  A
C1776      H1784   1.084       .  S
C1785      C1786   1.396       .  A
C1785      C1790   1.402       .  A
C1785      H1801   1.084       .  S
C1786      C1787   1.402       .  A
C1786      H1802   1.084       .  S
C1787      C1797   1.399       .  A
C1787      C1788   1.411       .  A
C1788      C1794   1.413       .  A
C1788      C1789   1.417       .  A
C1789      C1791   1.414       .  A
C1789      C1790   1.410       .  A
C1790      C1798   1.398       .  A
C1791      C1800   1.416       .  A
C1791      C1792   1.406       .  A
C1792      C1793   1.406       .  A
C1792      H1803   1.083       .  S
C1793      C1794   1.406       .  A
C1793      H1804   1.083       .  S
C1794      C1795   1.415       .  A
C1795      C1796   1.410       .  A
C1795      H1805   1.084       .  S
C1796      C1797   1.406       .  A
C1797      H1806   1.085       .  S
C1798      C1799   1.406       .  A
C1798      H1807   1.085       .  S
C1799      C1800   1.410       .  A
C1800      H1808   1.084       .  S
C1809      C1810   1.403       .  A
C1809      C1814   1.405       .  A
C1809      H1825   1.083       .  S
C1810      C1811   1.405       .  A
C1810      H1826   1.083       .  S
C1811      C1821   1.408       .  A
C1811      C1812   1.411       .  A
C1812      C1818   1.411       .  A
C1812      C1813   1.414       .  A
C1813      C1815   1.409       .  A
C1813      C1814   1.413       .  A
C1814      C1822   1.411       .  A
C1815      C1824   1.400       .  A
C1815      C1816   1.404       .  A
C1816      C1817   1.397       .  A
C1816      H1827   1.084       .  S
C1817      C1818   1.402       .  A
C1817      H1828   1.084       .  S
C1818      C1819   1.401       .  A
C1819      C1820   1.407       .  A
C1819      H1829   1.084       .  S
C1820      C1821   1.409       .  A
C1821      H1830   1.084       .  S
C1822      C1823   1.410       .  A
C1822      H1831   1.084       .  S
C1823      C1824   1.411       .  A
C1824      H1832   1.084       .  S
C1833      C1834   1.399       .  A
C1833      C1838   1.404       .  A
C1833      H1849   1.084       .  S
C1834      C1835   1.404       .  A
C1834      H1850   1.084       .  S
C1835      C1845   1.403       .  A
C1835      C1836   1.411       .  A
C1836      C1842   1.411       .  A
C1836      C1837   1.410       .  A
C1837      C1839   1.411       .  A
C1837      C1838   1.411       .  A
C1838      C1846   1.403       .  A
C1839      C1848   1.399       .  A
C1839      C1840   1.403       .  A
C1840      C1841   1.397       .  A
C1840      H1851   1.084       .  S
C1841      C1842   1.403       .  A
C1841      H1852   1.084       .  S
C1842      C1843   1.400       .  A
C1843      C1844   1.407       .  A
C1843      H1853   1.084       .  S
C1844      C1845   1.407       .  A
C1845      H1854   1.084       .  S
C1846      C1847   1.408       .  A
C1846      H1855   1.084       .  S
C1847      C1848   1.407       .  A
C1848      H1856   1.084       .  S
C1857      C1858   1.395       .  A
C1857      C1862   1.402       .  A
C1857      H1873   1.084       .  S
C1858      C1859   1.402       .  A
C1858      H1874   1.084       .  S
C1859      C1869   1.398       .  A
C1859      C1860   1.411       .  A
C1860      C1866   1.414       .  A
C1860      C1861   1.415       .  A
C1861      C1863   1.413       .  A
C1861      C1862   1.412       .  A
C1862      C1870   1.399       .  A
C1863      C1872   1.413       .  A
C1863      C1864   1.406       .  A
C1864      C1865   1.405       .  A
C1864      H1875   1.083       .  S
C1865      C1866   1.406       .  A
C1865      H1876   1.083       .  S
C1866      C1867   1.414       .  A
C1867      C1868   1.409       .  A
C1867      H1877   1.084       .  S
C1868      C1869   1.404       .  A
C1869      H1878   1.085       .  S
C1870      C1871   1.403       .  A
C1870      H1879   1.085       .  S
C1871      C1872   1.408       .  A
C1872      H1880   1.084       .  S
C1881      C1882   1.402       .  A
C1881      C1886   1.404       .  A
C1881      H1897   1.083       .  S
C1882      C1883   1.405       .  A
C1882      H1898   1.083       .  S
C1883      C1893   1.408       .  A
C1883      C1884   1.410       .  A
C1884      C1890   1.412       .  A
C1884      C1885   1.416       .  A
C1885      C1887   1.409       .  A
C1885      C1886   1.413       .  A
C1886      C1894   1.411       .  A
C1887      C1896   1.402       .  A
C1887      C1888   1.404       .  A
C1888      C1889   1.399       .  A
C1888      H1899   1.084       .  S
C1889      C1890   1.404       .  A
C1889      H1900   1.083       .  S
C1890      C1891   1.406       .  A
C1891      C1892   1.409       .  A
C1891      H1901   1.084       .  S
C1892      C1893   1.411       .  A
C1893      H1902   1.084       .  S
C1894      C1895   1.409       .  A
C1894      H1903   1.084       .  S
C1895      C1896   1.413       .  A
C1896      H1904   1.084       .  S
C1905      C1906   1.404       .  A
C1905      C1910   1.405       .  A
C1905      H1921   1.083       .  S
C1906      C1907   1.405       .  A
C1906      H1922   1.083       .  S
C1907      C1917   1.411       .  A
C1907      C1908   1.413       .  A
C1908      C1914   1.411       .  A
C1908      C1909   1.415       .  A
C1909      C1911   1.410       .  A
C1909      C1910   1.414       .  A
C1910      C1918   1.412       .  A
C1911      C1920   1.400       .  A
C1911      C1912   1.403       .  A
C1912      C1913   1.397       .  A
C1912      H1923   1.084       .  S
C1913      C1914   1.403       .  A
C1913      H1924   1.084       .  S
C1914      C1915   1.401       .  A
C1915      C1916   1.407       .  A
C1915      H1925   1.085       .  S
C1916      C1917   1.408       .  A
C1917      H1926   1.084       .  S
C1918      C1919   1.408       .  A
C1918      H1927   1.084       .  S
C1919      C1920   1.407       .  A
C1920      H1928   1.085       .  S
C1929      C1930   1.397       .  A
C1929      C1934   1.402       .  A
C1929      H1945   1.084       .  S
C1930      C1931   1.403       .  A
C1930      H1946   1.084       .  S
C1931      C1941   1.397       .  A
C1931      C1932   1.409       .  A
C1932      C1938   1.413       .  A
C1932      C1933   1.412       .  A
C1933      C1935   1.410       .  A
C1933      C1934   1.412       .  A
C1934      C1942   1.401       .  A
C1935      C1944   1.405       .  A
C1935      C1936   1.405       .  A
C1936      C1937   1.401       .  A
C1936      H1947   1.084       .  S
C1937      C1938   1.404       .  A
C1937      H1948   1.083       .  S
C1938      C1939   1.408       .  A
C1939      C1940   1.408       .  A
C1939      H1949   1.084       .  S
C1940      C1941   1.409       .  A
C1941      H1950   1.084       .  S
C1942      C1943   1.406       .  A
C1942      H1951   1.084       .  S
C1943      C1944   1.409       .  A
C1944      H1952   1.084       .  S
C1953      C1954   1.397       .  A
C1953      C1958   1.403       .  A
C1953      H1969   1.084       .  S
C1954      C1955   1.403       .  A
C1954      H1970   1.084       .  S
C1955      C1965   1.401       .  A
C1955      C1956   1.411       .  A
C1956      C1962   1.411       .  A
C1956      C1957   1.413       .  A
C1957      C1959   1.411       .  A
C1957      C1958   1.411       .  A
C1958      C1966   1.401       .  A
C1959      C1968   1.407       .  A
C1959      C1960   1.405       .  A
C1960      C1961   1.401       .  A
C1960      H1971   1.083       .  S
C1961      C1962   1.405       .  A
C1961      H1972   1.084       .  S
C1962      C1963   1.407       .  A
C1963      C1964   1.410       .  A
C1963      H1973   1.084       .  S
C1964      C1965   1.408       .  A
C1965      H1974   1.084       .  S
C1966      C1967   1.407       .  A
C1966      H1975   1.084       .  S
C1967      C1968   1.410       .  A
C1968      H1976   1.084       .  S
C1977      C1978   1.404       .  A
C1977      C1982   1.406       .  A
C1977      H1993   1.083       .  S
C1978      C1979   1.406       .  A
C1978      H1994   1.083       .  S
C1979      C1989   1.413       .  A
C1979      C1980   1.414       .  A
C1980      C1986   1.411       .  A
C1980      C1981   1.414       .  A
C1981      C1983   1.411       .  A
C1981      C1982   1.413       .  A
C1982      C1990   1.412       .  A
C1983      C1992   1.398       .  A
C1983      C1984   1.402       .  A
C1984      C1985   1.395       .  A
C1984      H1995   1.084       .  S
C1985      C1986   1.402       .  A
C1985      H1996   1.084       .  S
C1986      C1987   1.397       .  A
C1987      C1988   1.404       .  A
C1987      H1997   1.085       .  S
C1988      C1989   1.408       .  A
C1989      H1998   1.084       .  S
C1990      C1991   1.408       .  A
C1990      H1999   1.084       .  S
C1991      C1992   1.404       .  A
C1992      H2000   1.085       .  S
C2001      C2002   1.397       .  A
C2001      C2006   1.402       .  A
C2001      H2017   1.084       .  S
C2002      C2003   1.403       .  A
C2002      H2018   1.084       .  S
C2003      C2013   1.400       .  A
C2003      C2004   1.410       .  A
C2004      C2010   1.412       .  A
C2004      C2005   1.413       .  A
C2005      C2007   1.412       .  A
C2005      C2006   1.411       .  A
C2006      C2014   1.400       .  A
C2007      C2016   1.409       .  A
C2007      C2008   1.405       .  A
C2008      C2009   1.402       .  A
C2008      H2019   1.083       .  S
C2009      C2010   1.405       .  A
C2009      H2020   1.084       .  S
C2010      C2011   1.408       .  A
C2011      C2012   1.410       .  A
C2011      H2021   1.084       .  S
C2012      C2013   1.409       .  A
C2013      H2022   1.084       .  S
C2014      C2015   1.407       .  A
C2014      H2023   1.084       .  S
C2015      C2016   1.410       .  A
C2016      H2024   1.084       .  S
C2025      C2026   1.402       .  A
C2025      C2030   1.404       .  A
C2025      H2041   1.083       .  S
C2026      C2027   1.405       .  A
C2026      H2042   1.083       .  S
C2027      C2037   1.408       .  A
C2027      C2028   1.411       .  A
C2028      C2034   1.412       .  A
C2028      C2029   1.416       .  A
C2029      C2031   1.410       .  A
C2029      C2030   1.412       .  A
C2030      C2038   1.410       .  A
C2031      C2040   1.404       .  A
C2031      C2032   1.404       .  A
C2032      C2033   1.399       .  A
C2032      H2043   1.084       .  S
C2033      C2034   1.403       .  A
C2033      H2044   1.084       .  S
C2034      C2035   1.406       .  A
C2035      C2036   1.409       .  A
C2035      H2045   1.084       .  S
C2036      C2037   1.411       .  A
C2037      H2046   1.084       .  S
C2038      C2039   1.410       .  A
C2038      H2047   1.084       .  S
C2039      C2040   1.412       .  A
C2040      H2048   1.084       .  S
C2049      C2050   1.396       .  A
C2049      C2054   1.402       .  A
C2049      H2065   1.084       .  S
C2050      C2051   1.403       .  A
C2050      H2066   1.084       .  S
C2051      C2061   1.399       .  A
C2051      C2052   1.411       .  A
C2052      C2058   1.413       .  A
C2052      C2053   1.414       .  A
C2053      C2055   1.413       .  A
C2053      C2054   1.411       .  A
C2054      C2062   1.399       .  A
C2055      C2064   1.410       .  A
C2055      C2056   1.405       .  A
C2056      C2057   1.403       .  A
C2056      H2067   1.083       .  S
C2057      C2058   1.405       .  A
C2057      H2068   1.083       .  S
C2058      C2059   1.411       .  A
C2059      C2060   1.407       .  A
C2059      H2069   1.084       .  S
C2060      C2061   1.406       .  A
C2061      H2070   1.085       .  S
C2062      C2063   1.405       .  A
C2062      H2071   1.085       .  S
C2063      C2064   1.406       .  A
C2064      H2072   1.084       .  S
C2073      C2074   1.398       .  A
C2073      C2078   1.404       .  A
C2073      H2089   1.084       .  S
C2074      C2075   1.403       .  A
C2074      H2090   1.084       .  S
C2075      C2085   1.404       .  A
C2075      C2076   1.411       .  A
C2076      C2082   1.411       .  A
C2076      C2077   1.416       .  A
C2077      C2079   1.413       .  A
C2077      C2078   1.409       .  A
C2078      C2086   1.401       .  A
C2079      C2088   1.412       .  A
C2079      C2080   1.405       .  A
C2080      C2081   1.403       .  A
C2080      H2091   1.083       .  S
C2081      C2082   1.405       .  A
C2081      H2092   1.083       .  S
C2082      C2083   1.410       .  A
C2083      C2084   1.411       .  A
C2083      H2093   1.084       .  S
C2084      C2085   1.409       .  A
C2085      H2094   1.084       .  S
C2086      C2087   1.412       .  A
C2086      H2095   1.084       .  S
C2087      C2088   1.410       .  A
C2088      H2096   1.084       .  S
C2097      C2098   1.397       .  A
C2097      C2102   1.402       .  A
C2097      H2113   1.084       .  S
C2098      C2099   1.403       .  A
C2098      H2114   1.084       .  S
C2099      C2109   1.399       .  A
C2099      C2100   1.409       .  A
C2100      C2106   1.413       .  A
C2100      C2101   1.412       .  A
C2101      C2103   1.411       .  A
C2101      C2102   1.412       .  A
C2102      C2110   1.401       .  A
C2103      C2112   1.405       .  A
C2103      C2104   1.405       .  A
C2104      C2105   1.401       .  A
C2104      H2115   1.084       .  S
C2105      C2106   1.404       .  A
C2105      H2116   1.083       .  S
C2106      C2107   1.407       .  A
C2107      C2108   1.409       .  A
C2107      H2117   1.084       .  S
C2108      C2109   1.409       .  A
C2109      H2118   1.084       .  S
C2110      C2111   1.404       .  A
C2110      H2119   1.084       .  S
C2111      C2112   1.408       .  A
C2112      H2120   1.084       .  S
C2121      C2122   1.399       .  A
C2121      C2126   1.403       .  A
C2121      H2137   1.083       .  S
C2122      C2123   1.404       .  A
C2122      H2138   1.084       .  S
C2123      C2133   1.403       .  A
C2123      C2124   1.410       .  A
C2124      C2130   1.412       .  A
C2124      C2125   1.415       .  A
C2125      C2127   1.410       .  A
C2125      C2126   1.412       .  A
C2126      C2134   1.405       .  A
C2127      C2136   1.407       .  A
C2127      C2128   1.405       .  A
C2128      C2129   1.402       .  A
C2128      H2139   1.084       .  S
C2129      C2130   1.405       .  A
C2129      H2140   1.083       .  S
C2130      C2131   1.409       .  A
C2131      C2132   1.410       .  A
C2131      H2141   1.084       .  S
C2132      C2133   1.410       .  A
C2133      H2142   1.084       .  S
C2134      C2135   1.408       .  A
C2134      H2143   1.084       .  S
C2135      C2136   1.412       .  A
C2136      H2144   1.084       .  S
C2145      C2146   1.395       .  A
C2145      C2150   1.402       .  A
C2145      H2161   1.084       .  S
C2146      C2147   1.402       .  A
C2146      H2162   1.084       .  S
C2147      C2157   1.397       .  A
C2147      C2148   1.411       .  A
C2148      C2154   1.413       .  A
C2148      C2149   1.412       .  A
C2149      C2151   1.414       .  A
C2149      C2150   1.410       .  A
C2150      C2158   1.396       .  A
C2151      C2160   1.411       .  A
C2151      C2152   1.405       .  A
C2152      C2153   1.403       .  A
C2152      H2163   1.083       .  S
C2153      C2154   1.405       .  A
C2153      H2164   1.083       .  S
C2154      C2155   1.409       .  A
C2155      C2156   1.405       .  A
C2155      H2165   1.084       .  S
C2156      C2157   1.404       .  A
C2157      H2166   1.085       .  S
C2158      C2159   1.405       .  A
C2158      H2167   1.085       .  S
C2159      C2160   1.406       .  A
C2160      H2168   1.084       .  S
C2169      C2170   1.401       .  A
C2169      C2174   1.404       .  A
C2169      H2185   1.083       .  S
C2170      C2171   1.404       .  A
C2170      H2186   1.084       .  S
C2171      C2181   1.406       .  A
C2171      C2172   1.412       .  A
C2172      C2178   1.414       .  A
C2172      C2173   1.415       .  A
C2173      C2175   1.412       .  A
C2173      C2174   1.414       .  A
C2174      C2182   1.408       .  A
C2175      C2184   1.404       .  A
C2175      C2176   1.404       .  A
C2176      C2177   1.400       .  A
C2176      H2187   1.084       .  S
C2177      C2178   1.404       .  A
C2177      H2188   1.084       .  S
C2178      C2179   1.407       .  A
C2179      C2180   1.404       .  A
C2179      H2189   1.085       .  S
C2180      C2181   1.406       .  A
C2181      H2190   1.085       .  S
C2182      C2183   1.405       .  A
C2182      H2191   1.084       .  S
C2183      C2184   1.405       .  A
C2184      H2192   1.085       .  S
C2193      C2194   1.399       .  A
C2193      C2198   1.403       .  A
C2193      H2209   1.083       .  S
C2194      C2195   1.403       .  A
C2194      H2210   1.084       .  S
C2195      C2205   1.400       .  A
C2195      C2196   1.412       .  A
C2196      C2202   1.413       .  A
C2196      C2197   1.407       .  A
C2197      C2199   1.411       .  A
C2197      C2198   1.414       .  A
C2198      C2206   1.402       .  A
C2199      C2208   1.395       .  A
C2199      C2200   1.402       .  A
C2200      C2201   1.395       .  A
C2200      H2211   1.084       .  S
C2201      C2202   1.401       .  A
C2201      H2212   1.084       .  S
C2202      C2203   1.397       .  A
C2203      C2204   1.399       .  A
C2203      H2213   1.085       .  S
C2204      C2205   1.403       .  A
C2205      H2214   1.085       .  S
C2206      C2207   1.402       .  A
C2206      H2215   1.084       .  S
C2207      C2208   1.401       .  A
C2208      H2216   1.085       .  S
C2217      C2218   1.398       .  A
C2217      C2222   1.403       .  A
C2217      H2233   1.084       .  S
C2218      C2219   1.403       .  A
C2218      H2234   1.084       .  S
C2219      C2229   1.402       .  A
C2219      C2220   1.411       .  A
C2220      C2226   1.413       .  A
C2220      C2221   1.417       .  A
C2221      C2223   1.413       .  A
C2221      C2222   1.411       .  A
C2222      C2230   1.402       .  A
C2223      C2232   1.414       .  A
C2223      C2224   1.406       .  A
C2224      C2225   1.405       .  A
C2224      H2235   1.083       .  S
C2225      C2226   1.406       .  A
C2225      H2236   1.083       .  S
C2226      C2227   1.415       .  A
C2227      C2228   1.410       .  A
C2227      H2237   1.084       .  S
C2228      C2229   1.407       .  A
C2229      H2238   1.085       .  S
C2230      C2231   1.405       .  A
C2230      H2239   1.085       .  S
C2231      C2232   1.409       .  A
C2232      H2240   1.084       .  S
C2241      C2242   1.397   1_554  A
C2241      C2246   1.403       .  A
C2241      H2257   1.083       .  S
C2242      C2243   1.403       .  A
C2242      H2258   1.084       .  S
C2243      C2253   1.401       .  A
C2243      C2244   1.411       .  A
C2244      C2250   1.411       .  A
C2244      C2245   1.411   1_556  A
C2245      C2247   1.411       .  A
C2245      C2246   1.411       .  A
C2246      C2254   1.401       .  A
C2247      C2256   1.402       .  A
C2247      C2248   1.404       .  A
C2248      C2249   1.399   1_554  A
C2248      H2259   1.084       .  S
C2249      C2250   1.404       .  A
C2249      H2260   1.083       .  S
C2250      C2251   1.403       .  A
C2251      C2252   1.410       .  A
C2251      H2261   1.084       .  S
C2252      C2253   1.407       .  A
C2253      H2262   1.084       .  S
C2254      C2255   1.407       .  A
C2254      H2263   1.084       .  S
C2255      C2256   1.408       .  A
C2256      H2264   1.084       .  S
C2265      C2266   1.401       .  A
C2265      C2270   1.404       .  A
C2265      H2281   1.083       .  S
C2266      C2267   1.404       .  A
C2266      H2282   1.084       .  S
C2267      C2277   1.407       .  A
C2267      C2268   1.413       .  A
C2268      C2274   1.412       .  A
C2268      C2269   1.413       .  A
C2269      C2271   1.412       .  A
C2269      C2270   1.413       .  A
C2270      C2278   1.407       .  A
C2271      C2280   1.400       .  A
C2271      C2272   1.403       .  A
C2272      C2273   1.398       .  A
C2272      H2283   1.084       .  S
C2273      C2274   1.403       .  A
C2273      H2284   1.083       .  S
C2274      C2275   1.401       .  A
C2275      C2276   1.403       .  A
C2275      H2285   1.085       .  S
C2276      C2277   1.404       .  A
C2277      H2286   1.085       .  S
C2278      C2279   1.405       .  A
C2278      H2287   1.084       .  S
C2279      C2280   1.404       .  A
C2280      H2288   1.085       .  S
C2289      C2290   1.399       .  A
C2289      C2294   1.403       .  A
C2289      H2305   1.083       .  S
C2290      C2291   1.404       .  A
C2290      H2306   1.084       .  S
C2291      C2301   1.402       .  A
C2291      C2292   1.412       .  A
C2292      C2298   1.413       .  A
C2292      C2293   1.411       .  A
C2293      C2295   1.412       .  A
C2293      C2294   1.413       .  A
C2294      C2302   1.403       .  A
C2295      C2304   1.400       .  A
C2295      C2296   1.403       .  A
C2296      C2297   1.398       .  A
C2296      H2307   1.084       .  S
C2297      C2298   1.403       .  A
C2297      H2308   1.083       .  S
C2298      C2299   1.402       .  A
C2299      C2300   1.403       .  A
C2299      H2309   1.085       .  S
C2300      C2301   1.406       .  A
C2301      H2310   1.085       .  S
C2302      C2303   1.404       .  A
C2302      H2311   1.084       .  S
C2303      C2304   1.404       .  A
C2304      H2312   1.085       .  S
C2313      C2314   1.404       .  A
C2313      C2318   1.405       .  A
C2313      H2329   1.083       .  S
C2314      C2315   1.406       .  A
C2314      H2330   1.083       .  S
C2315      C2325   1.412       .  A
C2315      C2316   1.413       .  A
C2316      C2322   1.412       .  A
C2316      C2317   1.416       .  A
C2317      C2319   1.411       .  A
C2317      C2318   1.413       .  A
C2318      C2326   1.412       .  A
C2319      C2328   1.402       .  A
C2319      C2320   1.403       .  A
C2320      C2321   1.398       .  A
C2320      H2331   1.084       .  S
C2321      C2322   1.403       .  A
C2321      H2332   1.084       .  S
C2322      C2323   1.403       .  A
C2323      C2324   1.404       .  A
C2323      H2333   1.085       .  S
C2324      C2325   1.408       .  A
C2325      H2334   1.084       .  S
C2326      C2327   1.407       .  A
C2326      H2335   1.084       .  S
C2327      C2328   1.405       .  A
C2328      H2336   1.085       .  S
C2337      C2338   1.398       .  A
C2337      C2342   1.404       .  A
C2337      H2353   1.084       .  S
C2338      C2339   1.403       .  A
C2338      H2354   1.084       .  S
C2339      C2349   1.403       .  A
C2339      C2340   1.414       .  A
C2340      C2346   1.411       .  A
C2340      C2341   1.410       .  A
C2341      C2343   1.414       .  A
C2341      C2342   1.411       .  A
C2342      C2350   1.400       .  A
C2343      C2352   1.403       .  A
C2343      C2344   1.403       .  A
C2344      C2345   1.397       .  A
C2344      H2355   1.083       .  S
C2345      C2346   1.403       .  A
C2345      H2356   1.084       .  S
C2346      C2347   1.399       .  A
C2347      C2348   1.402       .  A
C2347      H2357   1.085       .  S
C2348      C2349   1.402       .  A
C2349      H2358   1.085       .  S
C2350      C2351   1.405       .  A
C2350      H2359   1.085       .  S
C2351      C2352   1.401       .  A
C2352      H2360   1.084       .  S
C2361      C2362   1.401       .  A
C2361      C2366   1.404       .  A
C2361      H2377   1.083       .  S
C2362      C2363   1.404       .  A
C2362      H2378   1.084       .  S
C2363      C2373   1.408       .  A
C2363      C2364   1.413       .  A
C2364      C2370   1.412       .  A
C2364      C2365   1.415       .  A
C2365      C2367   1.413       .  A
C2365      C2366   1.412       .  A
C2366      C2374   1.407       .  A
C2367      C2376   1.405       .  A
C2367      C2368   1.404       .  A
C2368      C2369   1.400       .  A
C2368      H2379   1.083       .  S
C2369      C2370   1.404       .  A
C2369      H2380   1.084       .  S
C2370      C2371   1.405       .  A
C2371      C2372   1.404       .  A
C2371      H2381   1.085       .  S
C2372      C2373   1.406       .  A
C2373      H2382   1.085       .  S
C2374      C2375   1.405       .  A
C2374      H2383   1.084       .  S
C2375      C2376   1.406       .  A
C2376      H2384   1.084       .  S
C2385      C2386   1.398       .  A
C2385      C2390   1.402       .  A
C2385      H2401   1.084       .  S
C2386      C2387   1.403       .  A
C2386      H2402   1.084       .  S
C2387      C2397   1.399       .  A
C2387      C2388   1.409       .  A
C2388      C2394   1.413       .  A
C2388      C2389   1.413       .  A
C2389      C2391   1.410       .  A
C2389      C2390   1.413       .  A
C2390      C2398   1.404       .  A
C2391      C2400   1.405       .  A
C2391      C2392   1.405       .  A
C2392      C2393   1.401       .  A
C2392      H2403   1.084       .  S
C2393      C2394   1.404       .  A
C2393      H2404   1.083       .  S
C2394      C2395   1.408       .  A
C2395      C2396   1.409       .  A
C2395      H2405   1.084       .  S
C2396      C2397   1.410       .  A
C2397      H2406   1.084       .  S
C2398      C2399   1.406       .  A
C2398      H2407   1.084       .  S
C2399      C2400   1.411       .  A
C2400      H2408   1.084       .  S
C2409      C2410   1.395       .  A
C2409      C2414   1.402       .  A
C2409      H2425   1.084       .  S
C2410      C2411   1.402       .  A
C2410      H2426   1.084       .  S
C2411      C2421   1.397       .  A
C2411      C2412   1.411       .  A
C2412      C2418   1.414       .  A
C2412      C2413   1.414       .  A
C2413      C2415   1.413       .  A
C2413      C2414   1.411       .  A
C2414      C2422   1.398       .  A
C2415      C2424   1.411       .  A
C2415      C2416   1.405       .  A
C2416      C2417   1.404       .  A
C2416      H2427   1.083       .  S
C2417      C2418   1.405       .  A
C2417      H2428   1.083       .  S
C2418      C2419   1.412       .  A
C2419      C2420   1.407       .  A
C2419      H2429   1.084       .  S
C2420      C2421   1.403       .  A
C2421      H2430   1.085       .  S
C2422      C2423   1.404       .  A
C2422      H2431   1.085       .  S
C2423      C2424   1.407       .  A
C2424      H2432   1.084       .  S
C2433      C2434   1.401       .  A
C2433      C2438   1.404       .  A
C2433      H2449   1.083       .  S
C2434      C2435   1.404       .  A
C2434      H2450   1.084       .  S
C2435      C2445   1.405       .  A
C2435      C2436   1.412       .  A
C2436      C2442   1.412       .  A
C2436      C2437   1.413       .  A
C2437      C2439   1.411       .  A
C2437      C2438   1.412       .  A
C2438      C2446   1.407       .  A
C2439      C2448   1.401       .  A
C2439      C2440   1.403       .  A
C2440      C2441   1.398       .  A
C2440      H2451   1.084       .  S
C2441      C2442   1.402       .  A
C2441      H2452   1.084       .  S
C2442      C2443   1.401       .  A
C2443      C2444   1.404       .  A
C2443      H2453   1.085       .  S
C2444      C2445   1.407       .  A
C2445      H2454   1.084       .  S
C2446      C2447   1.409       .  A
C2446      H2455   1.084       .  S
C2447      C2448   1.407       .  A
C2448      H2456   1.084       .  S
C2457      C2458   1.398   1_556  A
C2457      C2462   1.403       .  A
C2457      H2473   1.084       .  S
C2458      C2459   1.403       .  A
C2458      H2474   1.084       .  S
C2459      C2469   1.402       .  A
C2459      C2460   1.411       .  A
C2460      C2466   1.411       .  A
C2460      C2461   1.412   1_554  A
C2461      C2463   1.412       .  A
C2461      C2462   1.410       .  A
C2462      C2470   1.400       .  A
C2463      C2472   1.405       .  A
C2463      C2464   1.404       .  A
C2464      C2465   1.400   1_556  A
C2464      H2475   1.084       .  S
C2465      C2466   1.404       .  A
C2465      H2476   1.083       .  S
C2466      C2467   1.404       .  A
C2467      C2468   1.408       .  A
C2467      H2477   1.084       .  S
C2468      C2469   1.407       .  A
C2469      H2478   1.084       .  S
C2470      C2471   1.408       .  A
C2470      H2479   1.084       .  S
C2471      C2472   1.408       .  A
C2472      H2480   1.084       .  S
C2481      C2482   1.398       .  A
C2481      C2486   1.403       .  A
C2481      H2497   1.083       .  S
C2482      C2483   1.403       .  A
C2482      H2498   1.084       .  S
C2483      C2493   1.402       .  A
C2483      C2484   1.413       .  A
C2484      C2490   1.412       .  A
C2484      C2485   1.410       .  A
C2485      C2487   1.413       .  A
C2485      C2486   1.412       .  A
C2486      C2494   1.400       .  A
C2487      C2496   1.403       .  A
C2487      C2488   1.403       .  A
C2488      C2489   1.399       .  A
C2488      H2499   1.083       .  S
C2489      C2490   1.403       .  A
C2489      H2500   1.084       .  S
C2490      C2491   1.401       .  A
C2491      C2492   1.404       .  A
C2491      H2501   1.085       .  S
C2492      C2493   1.402       .  A
C2493      H2502   1.085       .  S
C2494      C2495   1.403       .  A
C2494      H2503   1.085       .  S
C2495      C2496   1.402       .  A
C2496      H2504   1.084       .  S
C2505      C2506   1.400       .  A
C2505      C2510   1.404       .  A
C2505      H2521   1.084       .  S
C2506      C2507   1.404       .  A
C2506      H2522   1.083       .  S
C2507      C2517   1.407       .  A
C2507      C2508   1.414       .  A
C2508      C2514   1.411       .  A
C2508      C2509   1.411       .  A
C2509      C2511   1.413       .  A
C2509      C2510   1.413       .  A
C2510      C2518   1.403       .  A
C2511      C2520   1.400       .  A
C2511      C2512   1.402       .  A
C2512      C2513   1.397       .  A
C2512      H2523   1.084       .  S
C2513      C2514   1.403       .  A
C2513      H2524   1.084       .  S
C2514      C2515   1.398       .  A
C2515      C2516   1.404       .  A
C2515      H2525   1.085       .  S
C2516      C2517   1.404       .  A
C2517      H2526   1.084       .  S
C2518      C2519   1.402       .  A
C2518      H2527   1.085       .  S
C2519      C2520   1.401       .  A
C2520      H2528   1.085       .  S
C2529      C2530   1.397       .  A
C2529      C2534   1.403       .  A
C2529      H2545   1.084       .  S
C2530      C2531   1.403       .  A
C2530      H2546   1.084       .  S
C2531      C2541   1.401       .  A
C2531      C2532   1.411       .  A
C2532      C2538   1.413       .  A
C2532      C2533   1.417       .  A
C2533      C2535   1.413       .  A
C2533      C2534   1.411       .  A
C2534      C2542   1.400       .  A
C2535      C2544   1.415       .  A
C2535      C2536   1.406       .  A
C2536      C2537   1.405       .  A
C2536      H2547   1.083       .  S
C2537      C2538   1.406       .  A
C2537      H2548   1.083       .  S
C2538      C2539   1.414       .  A
C2539      C2540   1.409       .  A
C2539      H2549   1.084       .  S
C2540      C2541   1.407       .  A
C2541      H2550   1.085       .  S
C2542      C2543   1.407       .  A
C2542      H2551   1.085       .  S
C2543      C2544   1.410       .  A
C2544      H2552   1.084       .  S
C2553      C2554   1.397       .  A
C2553      C2558   1.403       .  A
C2553      H2569   1.084       .  S
C2554      C2555   1.403       .  A
C2554      H2570   1.083       .  S
C2555      C2565   1.398       .  A
C2555      C2556   1.411       .  A
C2556      C2562   1.414       .  A
C2556      C2557   1.409       .  A
C2557      C2559   1.411       .  A
C2557      C2558   1.414       .  A
C2558      C2566   1.401       .  A
C2559      C2568   1.400       .  A
C2559      C2560   1.403       .  A
C2560      C2561   1.398       .  A
C2560      H2571   1.083       .  S
C2561      C2562   1.403       .  A
C2561      H2572   1.084       .  S
C2562      C2563   1.402       .  A
C2563      C2564   1.402       .  A
C2563      H2573   1.084       .  S
C2564      C2565   1.404       .  A
C2565      H2574   1.084       .  S
C2566      C2567   1.401       .  A
C2566      H2575   1.085       .  S
C2567      C2568   1.403       .  A
C2568      H2576   1.085       .  S
C2577      C2578   1.398       .  A
C2577      C2582   1.403       .  A
C2577      H2593   1.084       .  S
C2578      C2579   1.403       .  A
C2578      H2594   1.083       .  S
C2579      C2589   1.402       .  A
C2579      C2580   1.412       .  A
C2580      C2586   1.414       .  A
C2580      C2581   1.414       .  A
C2581      C2583   1.412       .  A
C2581      C2582   1.413       .  A
C2582      C2590   1.403       .  A
C2583      C2592   1.407       .  A
C2583      C2584   1.404       .  A
C2584      C2585   1.401       .  A
C2584      H2595   1.084       .  S
C2585      C2586   1.404       .  A
C2585      H2596   1.083       .  S
C2586      C2587   1.407       .  A
C2587      C2588   1.404       .  A
C2587      H2597   1.084       .  S
C2588      C2589   1.404       .  A
C2589      H2598   1.085       .  S
C2590      C2591   1.403       .  A
C2590      H2599   1.085       .  S
C2591      C2592   1.406       .  A
C2592      H2600   1.085       .  S
C2601      C2602   1.402       .  A
C2601      C2606   1.405       .  A
C2601      H2617   1.084       .  S
C2602      C2603   1.406       .  A
C2602      H2618   1.084       .  S
C2603      C2613   1.407       .  A
C2603      C2604   1.410       .  A
C2604      C2610   1.413       .  A
C2604      C2605   1.416       .  A
C2605      C2607   1.410       .  A
C2605      C2606   1.413       .  A
C2606      C2614   1.410       .  A
C2607      C2616   1.404       .  A
C2607      C2608   1.404       .  A
C2608      C2609   1.400       .  A
C2608      H2619   1.083       .  S
C2609      C2610   1.403       .  A
C2609      H2620   1.083       .  S
C2610      C2611   1.408       .  A
C2611      C2612   1.408       .  A
C2611      H2621   1.084       .  S
C2612      C2613   1.413       .  A
C2613      H2622   1.084       .  S
C2614      C2615   1.409       .  A
C2614      H2623   1.084       .  S
C2615      C2616   1.408       .  A
C2616      H2624   1.084       .  S
C2625      C2626   1.407       .  A
C2625      C2630   1.407       .  A
C2625      H2641   1.083       .  S
C2626      C2627   1.407       .  A
C2626      H2642   1.083       .  S
C2627      C2637   1.417       .  A
C2627      C2628   1.414       .  A
C2628      C2634   1.410       .  A
C2628      C2629   1.416       .  A
C2629      C2631   1.411       .  A
C2629      C2630   1.413       .  A
C2630      C2638   1.416       .  A
C2631      C2640   1.397       .  A
C2631      C2632   1.401       .  A
C2632      C2633   1.394       .  A
C2632      H2643   1.084       .  S
C2633      C2634   1.402       .  A
C2633      H2644   1.084       .  S
C2634      C2635   1.397       .  A
C2635      C2636   1.405       .  A
C2635      H2645   1.085       .  S
C2636      C2637   1.411       .  A
C2637      H2646   1.084       .  S
C2638      C2639   1.412       .  A
C2638      H2647   1.084       .  S
C2639      C2640   1.404       .  A
C2640      H2648   1.085       .  S
C2649      C2650   1.399       .  A
C2649      C2654   1.403       .  A
C2649      H2665   1.084       .  S
C2650      C2651   1.404       .  A
C2650      H2666   1.084       .  S
C2651      C2661   1.403       .  A
C2651      C2652   1.410       .  A
C2652      C2658   1.412       .  A
C2652      C2653   1.415       .  A
C2653      C2655   1.411       .  A
C2653      C2654   1.412       .  A
C2654      C2662   1.404       .  A
C2655      C2664   1.406       .  A
C2655      C2656   1.404       .  A
C2656      C2657   1.401       .  A
C2656      H2667   1.083       .  S
C2657      C2658   1.404       .  A
C2657      H2668   1.083       .  S
C2658      C2659   1.408       .  A
C2659      C2660   1.408       .  A
C2659      H2669   1.084       .  S
C2660      C2661   1.412       .  A
C2661      H2670   1.084       .  S
C2662      C2663   1.409       .  A
C2662      H2671   1.084       .  S
C2663      C2664   1.409       .  A
C2664      H2672   1.084       .  S
C2673      C2674   1.398   1_554  A
C2673      C2678   1.403       .  A
C2673      H2689   1.083       .  S
C2674      C2675   1.403       .  A
C2674      H2690   1.084       .  S
C2675      C2685   1.401       .  A
C2675      C2676   1.411       .  A
C2676      C2682   1.410       .  A
C2676      C2677   1.409   1_556  A
C2677      C2679   1.411       .  A
C2677      C2678   1.410       .  A
C2678      C2686   1.400       .  A
C2679      C2688   1.400       .  A
C2679      C2680   1.402       .  A
C2680      C2681   1.397   1_554  A
C2680      H2691   1.084       .  S
C2681      C2682   1.403       .  A
C2681      H2692   1.084       .  S
C2682      C2683   1.399       .  A
C2683      C2684   1.407       .  A
C2683      H2693   1.084       .  S
C2684      C2685   1.408       .  A
C2685      H2694   1.084       .  S
C2686      C2687   1.409       .  A
C2686      H2695   1.084       .  S
C2687      C2688   1.406       .  A
C2688      H2696   1.084       .  S
C2697      C2698   1.398       .  A
C2697      C2702   1.403       .  A
C2697      H2713   1.084       .  S
C2698      C2699   1.403       .  A
C2698      H2714   1.084       .  S
C2699      C2709   1.401       .  A
C2699      C2700   1.413       .  A
C2700      C2706   1.411       .  A
C2700      C2701   1.407       .  A
C2701      C2703   1.413       .  A
C2701      C2702   1.412       .  A
C2702      C2710   1.399       .  A
C2703      C2712   1.398       .  A
C2703      C2704   1.402       .  A
C2704      C2705   1.396       .  A
C2704      H2715   1.084       .  S
C2705      C2706   1.402       .  A
C2705      H2716   1.084       .  S
C2706      C2707   1.396       .  A
C2707      C2708   1.403       .  A
C2707      H2717   1.085       .  S
C2708      C2709   1.402       .  A
C2709      H2718   1.085       .  S
C2710      C2711   1.403       .  A
C2710      H2719   1.085       .  S
C2711      C2712   1.401       .  A
C2712      H2720   1.085       .  S
C2721      C2722   1.401       .  A
C2721      C2726   1.404       .  A
C2721      H2737   1.084       .  S
C2722      C2723   1.404       .  A
C2722      H2738   1.083       .  S
C2723      C2733   1.409       .  A
C2723      C2724   1.414       .  A
C2724      C2730   1.411       .  A
C2724      C2725   1.415       .  A
C2725      C2727   1.413       .  A
C2725      C2726   1.413       .  A
C2726      C2734   1.407       .  A
C2727      C2736   1.405       .  A
C2727      C2728   1.404       .  A
C2728      C2729   1.400       .  A
C2728      H2739   1.083       .  S
C2729      C2730   1.404       .  A
C2729      H2740   1.084       .  S
C2730      C2731   1.404       .  A
C2731      C2732   1.407       .  A
C2731      H2741   1.085       .  S
C2732      C2733   1.405       .  A
C2733      H2742   1.084       .  S
C2734      C2735   1.404       .  A
C2734      H2743   1.085       .  S
C2735      C2736   1.404       .  A
C2736      H2744   1.085       .  S
C2745      C2746   1.397       .  A
C2745      C2750   1.403       .  A
C2745      H2761   1.084       .  S
C2746      C2747   1.403       .  A
C2746      H2762   1.084       .  S
C2747      C2757   1.401       .  A
C2747      C2748   1.411       .  A
C2748      C2754   1.413       .  A
C2748      C2749   1.415       .  A
C2749      C2751   1.414       .  A
C2749      C2750   1.411       .  A
C2750      C2758   1.400       .  A
C2751      C2760   1.413       .  A
C2751      C2752   1.405       .  A
C2752      C2753   1.404       .  A
C2752      H2763   1.083       .  S
C2753      C2754   1.405       .  A
C2753      H2764   1.083       .  S
C2754      C2755   1.412       .  A
C2755      C2756   1.408       .  A
C2755      H2765   1.084       .  S
C2756      C2757   1.406       .  A
C2757      H2766   1.085       .  S
C2758      C2759   1.405       .  A
C2758      H2767   1.085       .  S
C2759      C2760   1.408       .  A
C2760      H2768   1.084       .  S
C2769      C2770   1.399       .  A
C2769      C2774   1.403       .  A
C2769      H2785   1.084       .  S
C2770      C2771   1.403       .  A
C2770      H2786   1.084       .  S
C2771      C2781   1.404       .  A
C2771      C2772   1.413       .  A
C2772      C2778   1.413       .  A
C2772      C2773   1.414       .  A
C2773      C2775   1.412       .  A
C2773      C2774   1.413       .  A
C2774      C2782   1.403       .  A
C2775      C2784   1.406       .  A
C2775      C2776   1.404       .  A
C2776      C2777   1.401       .  A
C2776      H2787   1.083       .  S
C2777      C2778   1.404       .  A
C2777      H2788   1.084       .  S
C2778      C2779   1.406       .  A
C2779      C2780   1.405       .  A
C2779      H2789   1.085       .  S
C2780      C2781   1.403       .  A
C2781      H2790   1.085       .  S
C2782      C2783   1.403       .  A
C2782      H2791   1.085       .  S
C2783      C2784   1.406       .  A
C2784      H2792   1.085       .  S
C2793      C2794   1.395       .  A
C2793      C2798   1.402       .  A
C2793      H2809   1.084       .  S
C2794      C2795   1.402       .  A
C2794      H2810   1.083       .  S
C2795      C2805   1.397       .  A
C2795      C2796   1.413       .  A
C2796      C2802   1.412       .  A
C2796      C2797   1.408       .  A
C2797      C2799   1.413       .  A
C2797      C2798   1.412       .  A
C2798      C2806   1.396       .  A
C2799      C2808   1.403       .  A
C2799      C2800   1.404       .  A
C2800      C2801   1.399       .  A
C2800      H2811   1.083       .  S
C2801      C2802   1.403       .  A
C2801      H2812   1.084       .  S
C2802      C2803   1.400       .  A
C2803      C2804   1.404       .  A
C2803      H2813   1.085       .  S
C2804      C2805   1.401       .  A
C2805      H2814   1.085       .  S
C2806      C2807   1.402       .  A
C2806      H2815   1.085       .  S
C2807      C2808   1.403       .  A
C2808      H2816   1.084       .  S
C2817      C2818   1.401       .  A
C2817      C2822   1.404       .  A
C2817      H2833   1.083       .  S
C2818      C2819   1.404       .  A
C2818      H2834   1.083       .  S
C2819      C2829   1.407       .  A
C2819      C2820   1.412       .  A
C2820      C2826   1.411       .  A
C2820      C2821   1.414       .  A
C2821      C2823   1.411       .  A
C2821      C2822   1.411       .  A
C2822      C2830   1.406       .  A
C2823      C2832   1.403       .  A
C2823      C2824   1.404       .  A
C2824      C2825   1.398       .  A
C2824      H2835   1.084       .  S
C2825      C2826   1.403       .  A
C2825      H2836   1.084       .  S
C2826      C2827   1.402       .  A
C2827      C2828   1.408       .  A
C2827      H2837   1.084       .  S
C2828      C2829   1.409       .  A
C2829      H2838   1.084       .  S
C2830      C2831   1.409       .  A
C2830      H2839   1.084       .  S
C2831      C2832   1.410       .  A
C2832      H2840   1.084       .  S
C2841      C2842   1.404       .  A
C2841      C2846   1.406       .  A
C2841      H2857   1.083       .  S
C2842      C2843   1.406       .  A
C2842      H2858   1.083       .  S
C2843      C2853   1.409       .  A
C2843      C2844   1.411       .  A
C2844      C2850   1.412       .  A
C2844      C2845   1.413       .  A
C2845      C2847   1.409       .  A
C2845      C2846   1.413       .  A
C2846      C2854   1.411       .  A
C2847      C2856   1.397       .  A
C2847      C2848   1.402       .  A
C2848      C2849   1.395       .  A
C2848      H2859   1.084       .  S
C2849      C2850   1.401       .  A
C2849      H2860   1.084       .  S
C2850      C2851   1.399       .  A
C2851      C2852   1.404       .  A
C2851      H2861   1.085       .  S
C2852      C2853   1.411       .  A
C2853      H2862   1.084       .  S
C2854      C2855   1.411       .  A
C2854      H2863   1.084       .  S
C2855      C2856   1.408       .  A
C2856      H2864   1.084       .  S
C2865      C2866   1.406       .  A
C2865      C2870   1.406       .  A
C2865      H2881   1.083       .  S
C2866      C2867   1.407       .  A
C2866      H2882   1.083       .  S
C2867      C2877   1.416       .  A
C2867      C2868   1.413       .  A
C2868      C2874   1.411       .  A
C2868      C2869   1.416       .  A
C2869      C2871   1.411       .  A
C2869      C2870   1.414       .  A
C2870      C2878   1.416       .  A
C2871      C2880   1.398       .  A
C2871      C2872   1.402       .  A
C2872      C2873   1.395       .  A
C2872      H2883   1.084       .  S
C2873      C2874   1.402       .  A
C2873      H2884   1.084       .  S
C2874      C2875   1.398       .  A
C2875      C2876   1.405       .  A
C2875      H2885   1.085       .  S
C2876      C2877   1.410       .  A
C2877      H2886   1.084       .  S
C2878      C2879   1.410       .  A
C2878      H2887   1.084       .  S
C2879      C2880   1.405       .  A
C2880      H2888   1.085       .  S
C2889      C2890   1.401       .  A
C2889      C2894   1.405       .  A
C2889      H2905   1.084       .  S
C2890      C2891   1.404       .  A
C2890      H2906   1.083       .  S
C2891      C2901   1.409       .  A
C2891      C2892   1.414       .  A
C2892      C2898   1.409       .  A
C2892      C2893   1.414       .  A
C2893      C2895   1.413       .  A
C2893      C2894   1.410       .  A
C2894      C2902   1.404       .  A
C2895      C2904   1.406       .  A
C2895      C2896   1.403       .  A
C2896      C2897   1.399       .  A
C2896      H2907   1.084       .  S
C2897      C2898   1.404       .  A
C2897      H2908   1.084       .  S
C2898      C2899   1.400       .  A
C2899      C2900   1.411       .  A
C2899      H2909   1.084       .  S
C2900      C2901   1.408       .  A
C2901      H2910   1.084       .  S
C2902      C2903   1.409       .  A
C2902      H2911   1.084       .  S
C2903      C2904   1.406       .  A
C2904      H2912   1.084       .  S
C2913      C2914   1.400       .  A
C2913      C2918   1.405       .  A
C2913      H2929   1.084       .  S
C2914      C2915   1.403       .  A
C2914      H2930   1.084       .  S
C2915      C2925   1.406       .  A
C2915      C2916   1.412       .  A
C2916      C2922   1.410       .  A
C2916      C2917   1.417       .  A
C2917      C2919   1.413       .  A
C2917      C2918   1.409       .  A
C2918      C2926   1.403       .  A
C2919      C2928   1.412       .  A
C2919      C2920   1.404       .  A
C2920      C2921   1.402       .  A
C2920      H2931   1.083       .  S
C2921      C2922   1.405       .  A
C2921      H2932   1.083       .  S
C2922      C2923   1.408       .  A
C2923      C2924   1.411       .  A
C2923      H2933   1.084       .  S
C2924      C2925   1.409       .  A
C2925      H2934   1.084       .  S
C2926      C2927   1.413       .  A
C2926      H2935   1.084       .  S
C2927      C2928   1.410       .  A
C2928      H2936   1.084       .  S
C2937      C2938   1.399   1_556  A
C2937      C2942   1.404       .  A
C2937      H2953   1.083       .  S
C2938      C2939   1.404       .  A
C2938      H2954   1.084       .  S
C2939      C2949   1.404       .  A
C2939      C2940   1.411       .  A
C2940      C2946   1.411       .  A
C2940      C2941   1.412   1_554  A
C2941      C2943   1.411       .  A
C2941      C2942   1.411       .  A
C2942      C2950   1.403       .  A
C2943      C2952   1.403       .  A
C2943      C2944   1.403       .  A
C2944      C2945   1.399   1_556  A
C2944      H2955   1.084       .  S
C2945      C2946   1.404       .  A
C2945      H2956   1.083       .  S
C2946      C2947   1.403       .  A
C2947      C2948   1.410       .  A
C2947      H2957   1.084       .  S
C2948      C2949   1.409       .  A
C2949      H2958   1.084       .  S
C2950      C2951   1.409       .  A
C2950      H2959   1.084       .  S
C2951      C2952   1.408       .  A
C2952      H2960   1.084       .  S
C2961      C2962   1.401       .  A
C2961      C2966   1.404       .  A
C2961      H2977   1.084       .  S
C2962      C2963   1.404       .  A
C2962      H2978   1.083       .  S
C2963      C2973   1.408       .  A
C2963      C2964   1.413       .  A
C2964      C2970   1.412       .  A
C2964      C2965   1.416       .  A
C2965      C2967   1.413       .  A
C2965      C2966   1.412       .  A
C2966      C2974   1.406       .  A
C2967      C2976   1.408       .  A
C2967      C2968   1.404       .  A
C2968      C2969   1.401       .  A
C2968      H2979   1.083       .  S
C2969      C2970   1.404       .  A
C2969      H2980   1.084       .  S
C2970      C2971   1.406       .  A
C2971      C2972   1.406       .  A
C2971      H2981   1.085       .  S
C2972      C2973   1.405       .  A
C2973      H2982   1.084       .  S
C2974      C2975   1.406       .  A
C2974      H2983   1.085       .  S
C2975      C2976   1.405       .  A
C2976      H2984   1.084       .  S
C2985      C2986   1.397       .  A
C2985      C2990   1.403       .  A
C2985      H3001   1.083       .  S
C2986      C2987   1.403       .  A
C2986      H3002   1.084       .  S
C2987      C2997   1.398       .  A
C2987      C2988   1.411       .  A
C2988      C2994   1.414       .  A
C2988      C2989   1.411       .  A
C2989      C2991   1.411       .  A
C2989      C2990   1.414       .  A
C2990      C2998   1.403       .  A
C2991      C3000   1.400       .  A
C2991      C2992   1.404       .  A
C2992      C2993   1.399       .  A
C2992      H3003   1.084       .  S
C2993      C2994   1.404       .  A
C2993      H3004   1.083       .  S
C2994      C2995   1.405       .  A
C2995      C2996   1.403       .  A
C2995      H3005   1.084       .  S
C2996      C2997   1.402       .  A
C2997      H3006   1.085       .  S
C2998      C2999   1.402       .  A
C2998      H3007   1.084       .  S
C2999      C3000   1.406       .  A
C3000      H3008   1.086       .  S
