geometry optimzed in LAMMPS
_audit_creation_date              2020-11-30 
_audit_creation_method            'lammps2cif' 
_symmetry_space_group_name_H-M    'P1' 
_symmetry_Int_Tables_number       1 
_symmetry_cell_setting            triclinic 
loop_ 
_symmetry_equiv_pos_as_xyz 
  x,y,z 
_cell_length_a                    41.653374446517105 
_cell_length_b                    41.6529824073275 
_cell_length_c                    35.762286086219184 
_cell_angle_alpha                 89.9999477629722 
_cell_angle_beta                  89.99997123245244 
_cell_angle_gamma                 119.99885194359908 
loop_ 
_atom_site_label 
_atom_site_type_symbol 
_atom_site_fract_x 
_atom_site_fract_y 
_atom_site_fract_z 
_atom_site_charge 
Fe1        Fe  0.04312867  0.17969599  0.00315303     1.65780
Fe2        Fe  0.00878204  0.14332808  0.91761240     1.73250
Fe3        Fe  0.03065055  0.09598541  0.97774668     1.54410
O4          O  0.07404823  0.12119712  0.01674722    -0.83050
O5          O  0.29548683  0.09359280  0.92499916    -0.81350
O6          O  0.09077521  0.18052906  0.01745170    -0.85550
O7          O  0.01031995  0.13953906  0.04384481    -0.80410
O8          O  0.06964387  0.10894231  0.93735581    -0.82180
O9          O  0.31143941  0.16777322  0.93753155    -0.84930
C10         C  0.98839974  0.10421329  0.04195955     0.95840
C11         C  0.09742158  0.15484979  0.02398128     1.03280
O12         O  0.02808559  0.14049215  0.96615582    -1.13910
O13         O  0.05326716  0.19333580  0.90656961    -0.76340
O14         O  0.07463218  0.21953205  0.96275275    -0.79830
O15         O  0.99104676  0.08365225  0.01736946    -0.80520
C16         C  0.07593069  0.21975340  0.92690037     0.94740
O17         O  0.99972664  0.18758592  0.99476400    -0.78470
O18         O  0.03804636  0.11902415  0.89255447    -0.83670
C19         C  0.29542349  0.06337428  0.92542330     0.97360
C20         C  0.06301690  0.11139329  0.90327457     1.03280
O21         O  0.32205907  0.06094997  0.93974891    -0.79310
C22         C  0.31135345  0.18314374  0.96838120     1.01580
Fe23       Fe  0.14678925  0.28335265  0.83143834     1.65780
Fe24       Fe  0.18315031  0.31769441  0.91698240     1.73250
Fe25       Fe  0.23049711  0.29582908  0.85685108     1.54420
O26         O  0.20528856  0.25243296  0.81784941    -0.83050
O27         O  0.23288564  0.03099081  0.90960036    -0.81350
O28         O  0.14595716  0.23570597  0.81714112    -0.85550
O29         O  0.18694987  0.31616312  0.79074924    -0.80410
O30         O  0.21753705  0.25683422  0.89724095    -0.82180
O31         O  0.15870522  0.34836932  0.89706404    -0.84930
C32         C  0.22227552  0.33808256  0.79263669     0.95840
C33         C  0.17163661  0.22905937  0.81061478     1.03280
O34         O  0.18598999  0.29839387  0.86843855    -1.13910
O35         O  0.13314300  0.27320803  0.92801978    -0.76340
O36         O  0.10694872  0.25184711  0.87183515    -0.79830
O37         O  0.24283395  0.33543429  0.81722875    -0.80520
C38         C  0.10672562  0.25054683  0.90768754     0.94740
O39         O  0.13890012  0.32675570  0.83982783    -0.78470
O40         O  0.20745341  0.28843131  0.94204129    -0.83670
C41         C  0.26310423  0.03105453  0.90917694     0.97360
C42         C  0.21508560  0.26346173  0.93132183     1.03280
O43         O  0.26552951  0.00441946  0.89485096    -0.79310
C44         C  0.14333836  0.01512519  0.86621347     1.01580
Fe45       Fe  0.14680497  0.22649859  0.33648913     1.65780
Fe46       Fe  0.18316737  0.22852029  0.25094731     1.73250
Fe47       Fe  0.23051245  0.29772884  0.31108153     1.54410
O48         O  0.20530520  0.98257899  0.35008851    -0.83050
O49         O  0.23290192  0.23162564  0.25833419    -0.81350
O50         O  0.14597255  0.27331333  0.35078266    -0.85550
O51         O  0.18696611  0.23384859  0.37717899    -0.80410
O52         O  0.21755052  0.99043256  0.27069542    -0.82180
O53         O  0.15872240  0.17339906  0.27086423    -0.84930
C54         C  0.22229149  0.24725108  0.37529071     0.95840
C55         C  0.17165247  0.97230351  0.35731515     1.03280
O56         O  0.18600570  0.25065854  0.29949106    -1.13910
O57         O  0.13316005  0.22299982  0.23990598    -0.76340
O58         O  0.10696481  0.21816390  0.29609058    -0.79830
O59         O  0.24285050  0.27045690  0.35069873    -0.80520
C60         C  0.10674186  0.21924275  0.26023828     0.94740
O61         O  0.13891768  0.17520720  0.32810084    -0.78470
O62         O  0.20747020  0.28208851  0.22589221    -0.83670
C63         C  0.26311938  0.26178052  0.25875632     0.97370
C64         C  0.21509980  0.98135566  0.23661384     1.03280
O65         O  0.26554354  0.29084115  0.27307897    -0.79310
C66         C  0.14335616  0.15794272  0.30171517     1.01580
Fe67       Fe  0.04313745  0.22649875  0.16477613     1.65780
Fe68       Fe  0.00879839  0.22852034  0.25031931     1.73250
Fe69       Fe  0.03065914  0.29772993  0.19018546     1.54420
O70         O  0.07405142  0.98258185  0.15118044    -0.83050
O71         O  0.29550272  0.23162620  0.24293459    -0.81350
O72         O  0.09078374  0.27331383  0.15048216    -0.85550
O73         O  0.01032496  0.23384858  0.12408686    -0.80410
O74         O  0.06965683  0.99043288  0.23057228    -0.82180
O75         O  0.31145571  0.17339958  0.23040206    -0.84930
C76         C  0.98840213  0.24725186  0.12597523     0.95840
C77         C  0.09742851  0.97230561  0.14395318     1.03280
O78         O  0.02809673  0.25065898  0.20177516    -1.13910
O79         O  0.05328493  0.22299878  0.26135874    -0.76340
O80         O  0.07464424  0.21816390  0.20517370    -0.79830
O81         O  0.99105000  0.27045902  0.15056678    -0.80520
C82         C  0.07594634  0.21924248  0.24102600     0.94740
O83         O  0.99973426  0.17520718  0.17316514    -0.78470
O84         O  0.03806306  0.28208805  0.27537532    -0.83670
C85         C  0.29543835  0.26178072  0.24251125     0.97370
C86         C  0.06303256  0.98135526  0.26465383     1.03280
O87         O  0.32207310  0.29084123  0.22818759    -0.79310
C88         C  0.31136468  0.15794315  0.19955073     1.01580
Fe89       Fe  0.20440011  0.06523553  0.16982871     1.65780
Fe90       Fe  0.20641900  0.03089277  0.08428536     1.73250
Fe91       Fe  0.27563029  0.05275678  0.14441551     1.54420
O92         O  0.29381744  0.09615193  0.18341812    -0.83050
O93         O  0.20952397  0.31759613  0.09167017    -0.81350
O94         O  0.25121518  0.11288284  0.18412315    -0.85550
O95         O  0.21175228  0.03242616  0.21051791    -0.80410
O96         O  0.96833083  0.09175210  0.10402631    -0.82180
O97         O  0.15129979  0.00021952  0.10420339    -0.84930
C98         C  0.22515695  0.01050473  0.20862949     0.95840
C99         C  0.28354053  0.11952783  0.19065021     1.03280
O100        O  0.22855908  0.05019348  0.13282858    -1.13910
O101        O  0.20089811  0.07537925  0.07324698    -0.76340
O102        O  0.19606296  0.09673985  0.12943155    -0.79830
O103        O  0.24836244  0.01315131  0.18403696    -0.80520
C104        C  0.19714058  0.09804023  0.09357953     0.94740
O105        O  0.15310831  0.02183133  0.16144071    -0.78470
O106        O  0.25998463  0.06015467  0.05922626    -0.83670
C107        C  0.23967831  0.31753180  0.09209110     0.97370
C108        C  0.29258548  0.08512448  0.06994547     1.03280
O109        O  0.26873891  0.01083343  0.10641485    -0.79310
C110        C  0.13584381  0.00012929  0.13505443     1.01580
Fe111      Fe  0.20439333  0.16889014  0.99811381     1.65780
Fe112      Fe  0.20641501  0.20525911  0.08365382     1.73250
Fe113      Fe  0.27562384  0.25260004  0.02351919     1.54410
O114        O  0.29380817  0.22738897  0.98451639    -0.83050
O115        O  0.20952193  0.25499486  0.07626590    -0.81350
O116        O  0.25120676  0.16805670  0.98381659    -0.85550
O117        O  0.21174107  0.20904723  0.95742202    -0.80410
O118        O  0.96832813  0.23964225  0.06390894    -0.82180
O119        O  0.15129387  0.18081452  0.06373445    -0.84930
C120        C  0.22514497  0.24437293  0.95930768     0.95840
C121        C  0.28353064  0.19373614  0.97728486     1.03280
O122        O  0.22855356  0.20809390  0.03511062    -1.13910
O123        O  0.20089259  0.15525134  0.09469714    -0.76340
O124        O  0.19606125  0.12905428  0.03851418    -0.79830
O125        O  0.24835179  0.26493386  0.98389811    -0.80520
C126        C  0.19713848  0.12883321  0.07436617     0.94740
O127        O  0.15310157  0.16100050  0.00650233    -0.78470
O128        O  0.25998370  0.22956204  0.10871124    -0.83670
C129        C  0.23967700  0.28521212  0.07584356     0.97360
C130        C  0.29258482  0.23719264  0.09799058     1.03280
O131        O  0.26873617  0.28763530  0.06151835    -0.79310
C132        C  0.13583714  0.16544295  0.03288513     1.01580
Fe133      Fe  0.15759471  0.12208739  0.83648729     1.65780
Fe134      Fe  0.12123267  0.12006658  0.75094546     1.73250
Fe135      Fe  0.07388716  0.05085754  0.81107956     1.54410
O136        O  0.09909428  0.36600669  0.85008611    -0.83050
O137        O  0.07149807  0.11696120  0.75833214    -0.81350
O138        O  0.15842683  0.07527255  0.85078110    -0.85550
O139        O  0.11743351  0.11473765  0.87717718    -0.80410
O140        O  0.08684909  0.35815416  0.77069317    -0.82180
O141        O  0.14567767  0.17518766  0.77086271    -0.84930
C142        C  0.08210806  0.10133494  0.87528927     0.95840
C143        C  0.13274695  0.04294894  0.85731327     1.03280
O144        O  0.11839402  0.09792788  0.79948918    -1.13910
O145        O  0.17124005  0.12558714  0.73990411    -0.76340
O146        O  0.19743481  0.13042183  0.79608869    -0.79830
O147        O  0.06154904  0.07812914  0.85069730    -0.80520
C148        C  0.19765801  0.12934366  0.76023634     0.94740
O149        O  0.16548275  0.17337900  0.82809897    -0.78470
O150        O  0.09692994  0.06649860  0.72589010    -0.83670
C151        C  0.04128058  0.08680633  0.75875422     0.97360
C152        C  0.08930019  0.03389803  0.73661165     1.03280
O153        O  0.03885623  0.05774570  0.77307714    -0.79310
C154        C  0.16104433  0.19064377  0.80171355     1.01460
Fe155      Fe  0.26126280  0.12208861  0.66477398     1.65780
Fe156      Fe  0.29560167  0.12006643  0.75031705     1.73250
Fe157      Fe  0.27374095  0.05085712  0.69018320     1.54420
O158        O  0.23034876  0.36600549  0.65117828    -0.83050
O159        O  0.00889739  0.11696072  0.74293207    -0.81350
O160        O  0.21361659  0.07527364  0.65047989    -0.85550
O161        O  0.29407528  0.11473898  0.62408466    -0.80410
O162        O  0.23474328  0.35815380  0.73057022    -0.82180
O163        O  0.32627771  0.17518732  0.73039990    -0.84930
C164        C  0.31599809  0.10133567  0.62597309     0.95840
C165        C  0.20697180  0.04294852  0.64395098     1.03280
O166        O  0.27630332  0.09792803  0.70177293    -1.13910
O167        O  0.25111500  0.12558775  0.76135660    -0.76340
O168        O  0.22975591  0.13042321  0.70517166    -0.79830
O169        O  0.31335003  0.07812829  0.65056451    -0.80520
C170        C  0.22845365  0.12934420  0.74102397     0.94740
O171        O  0.30466608  0.17338017  0.67316300    -0.78470
O172        O  0.26633709  0.06649856  0.77537314    -0.83670
C173        C  0.00896173  0.08680619  0.74250888     0.97370
C174        C  0.24136766  0.03389797  0.76465179     1.03280
O175        O  0.31566037  0.05774572  0.72818520    -0.79310
C176        C  0.32636898  0.19064398  0.69954861     1.01580
Fe177      Fe  0.26127235  0.16889054  0.50315303     1.65780
Fe178      Fe  0.29561822  0.20525847  0.41761225     1.73250
Fe179      Fe  0.27374980  0.25260074  0.47774681     1.54420
O180        O  0.23035312  0.22738909  0.51674840    -0.83050
O181        O  0.00891332  0.25499384  0.42499900    -0.81350
O182        O  0.21362525  0.16805692  0.51745084    -0.85550
O183        O  0.29408039  0.20904771  0.54384467    -0.80410
O184        O  0.23475573  0.23964313  0.43735689    -0.82180
O185        O  0.32629444  0.18081352  0.43753086    -0.84930
C186        C  0.31600103  0.24437336  0.54195875     0.95840
C187        C  0.20697920  0.19373629  0.52398120     1.03280
O188        O  0.27631496  0.20809420  0.46615579    -1.13910
O189        O  0.25113318  0.15525067  0.40656976    -0.76340
O190        O  0.22976945  0.12905407  0.46275308    -0.79830
O191        O  0.31335424  0.26493429  0.51736842    -0.80520
C192        C  0.22847032  0.12883280  0.42690078     0.94740
O193        O  0.30467530  0.16100198  0.49476408    -0.78470
O194        O  0.26635348  0.22956220  0.39255506    -0.83670
C195        C  0.00897661  0.28521233  0.42542345     0.97370
C196        C  0.24138269  0.23719255  0.40327558     1.03280
O197        O  0.31567394  0.28763627  0.43974849    -0.79310
C198        C  0.32638133  0.16544388  0.46838079     1.01580
Fe199      Fe  0.15761120  0.06523361  0.33143956     1.65780
Fe200      Fe  0.12125025  0.03089237  0.41698376     1.73250
Fe201      Fe  0.07390375  0.05275766  0.35685217     1.54410
O202        O  0.09911217  0.09615297  0.31784954    -0.83050
O203        O  0.07151479  0.31759610  0.40960183    -0.81350
O204        O  0.15844377  0.11288081  0.31714312    -0.85550
O205        O  0.11745033  0.03242373  0.29075058    -0.80410
O206        O  0.08686459  0.09175317  0.39724111    -0.82180
O207        O  0.14569510  0.00021723  0.39706581    -0.84930
C208        C  0.08212478  0.01050389  0.29263854     0.95840
C209        C  0.13276423  0.11952712  0.31061603     1.03280
O210        O  0.11841066  0.05019268  0.36843980    -1.13910
O211        O  0.17125770  0.07537860  0.42802089    -0.76340
O212        O  0.19745211  0.09673858  0.37183607    -0.79830
O213        O  0.06156644  0.01315186  0.31723086    -0.80520
C214        C  0.19767526  0.09803927  0.40768839     0.94740
O215        O  0.16549922  0.02182983  0.33982898    -0.78470
O216        O  0.09694745  0.06015590  0.44204196    -0.83670
C217        C  0.04129622  0.31753243  0.40917806     0.97370
C218        C  0.08931578  0.08512573  0.43132204     1.03280
O219        O  0.03887129  0.01083455  0.39485258    -0.79310
C220        C  0.16106126  0.00012739  0.36621499     1.01580
Fe221      Fe  0.10000041  0.28335184  0.66982678     1.65780
Fe222      Fe  0.09798160  0.31769444  0.58428335     1.73250
Fe223      Fe  0.36210368  0.29583040  0.64441369     1.54420
O224        O  0.34391679  0.25243564  0.68341688    -0.83050
O225        O  0.09487640  0.03099098  0.59166802    -0.81350
O226        O  0.05318527  0.23570416  0.68412066    -0.85550
O227        O  0.09264761  0.31616080  0.71051594    -0.80410
O228        O  0.33607009  0.25683471  0.60402513    -0.82180
O229        O  0.15310074  0.34836777  0.60420116    -0.84930
C230        C  0.07924327  0.33808250  0.70862726     0.95840
C231        C  0.35419337  0.22905935  0.69064824     1.03280
O232        O  0.07584157  0.29839383  0.63282663    -1.13910
O233        O  0.10350277  0.27320811  0.57324512    -0.76340
O234        O  0.10833829  0.25184797  0.62942983    -0.79830
O235        O  0.05603814  0.33543621  0.68403452    -0.80520
C236        C  0.10726067  0.25054744  0.59357783     0.94740
O237        O  0.15129200  0.32675643  0.66143885    -0.78470
O238        O  0.04441597  0.28843227  0.55922472    -0.83670
C239        C  0.06472205  0.03105529  0.59208923     0.97360
C240        C  0.34514865  0.26346227  0.56994427     1.03280
O241        O  0.03566140  0.00442006  0.60641266    -0.79310
C242        C  0.16855655  0.01512492  0.63505236     1.01580
Fe243      Fe  0.10000816  0.17969741  0.49811279     1.65780
Fe244      Fe  0.09798551  0.14332826  0.58365290     1.73250
Fe245      Fe  0.02877728  0.09598778  0.52351803     1.54410
O246        O  0.34392723  0.12119887  0.48451436    -0.83050
O247        O  0.09487849  0.09359248  0.57626493    -0.81350
O248        O  0.05319479  0.18053133  0.48381626    -0.85550
O249        O  0.09265975  0.13954019  0.45742112    -0.80410
O250        O  0.33607277  0.10894601  0.56390703    -0.82180
O251        O  0.15310677  0.16777271  0.56373404    -0.84930
C252        C  0.07925633  0.10421460  0.45930740     0.95840
C253        C  0.35420443  0.15485181  0.47728390     1.03280
O254        O  0.07584752  0.14049375  0.53510960    -1.13910
O255        O  0.10350797  0.19333606  0.59469599    -0.76340
O256        O  0.10834098  0.21953356  0.53851289    -0.79830
O257        O  0.05604970  0.08365375  0.48389798    -0.80520
C258        C  0.10726295  0.21975445  0.57436484     0.94740
O259        O  0.15129954  0.18758582  0.50650126    -0.78470
O260        O  0.04441655  0.11902540  0.60870971    -0.83670
C261        C  0.06472340  0.06337525  0.57584239     0.97360
C262        C  0.34514899  0.11139517  0.59798874     1.03280
O263        O  0.03566422  0.06095238  0.56151764    -0.79310
C264        C  0.16856366  0.18314352  0.53288449     1.01580
Fe265      Fe  0.04312867  0.51302933  0.00315303     1.65780
Fe266      Fe  0.00878204  0.47666141  0.91761240     1.73250
Fe267      Fe  0.03065055  0.42931874  0.97774668     1.54410
O268        O  0.07404823  0.45453045  0.01674722    -0.83050
O269        O  0.29548683  0.42692613  0.92499916    -0.81350
O270        O  0.09077521  0.51386239  0.01745170    -0.85550
O271        O  0.01031995  0.47287239  0.04384481    -0.80410
O272        O  0.06964387  0.44227564  0.93735581    -0.82180
O273        O  0.31143941  0.50110656  0.93753155    -0.84930
C274        C  0.98839974  0.43754662  0.04195955     0.95840
C275        C  0.09742158  0.48818312  0.02398128     1.03280
O276        O  0.02808559  0.47382549  0.96615582    -1.13910
O277        O  0.05326716  0.52666913  0.90656961    -0.76340
O278        O  0.07463218  0.55286539  0.96275275    -0.79830
O279        O  0.99104676  0.41698558  0.01736946    -0.80520
C280        C  0.07593069  0.55308673  0.92690037     0.94740
O281        O  0.99972664  0.52091925  0.99476400    -0.78470
O282        O  0.03804636  0.45235748  0.89255447    -0.83670
C283        C  0.29542349  0.39670761  0.92542330     0.97360
C284        C  0.06301690  0.44472662  0.90327457     1.03280
O285        O  0.32205907  0.39428330  0.93974891    -0.79310
C286        C  0.31135345  0.51647707  0.96838120     1.01580
Fe287      Fe  0.14678925  0.61668599  0.83143834     1.65780
Fe288      Fe  0.18315031  0.65102775  0.91698240     1.73250
Fe289      Fe  0.23049710  0.62916241  0.85685109     1.54420
O290        O  0.20528856  0.58576629  0.81784941    -0.83050
O291        O  0.23288564  0.36432414  0.90960036    -0.81350
O292        O  0.14595716  0.56903930  0.81714112    -0.85550
O293        O  0.18694987  0.64949645  0.79074924    -0.80410
O294        O  0.21753705  0.59016755  0.89724095    -0.82180
O295        O  0.15870522  0.68170265  0.89706404    -0.84930
C296        C  0.22227552  0.67141589  0.79263669     0.95840
C297        C  0.17163661  0.56239270  0.81061478     1.03280
O298        O  0.18599000  0.63172721  0.86843855    -1.13910
O299        O  0.13314300  0.60654136  0.92801978    -0.76340
O300        O  0.10694872  0.58518044  0.87183515    -0.79830
O301        O  0.24283395  0.66876762  0.81722875    -0.80520
C302        C  0.10672562  0.58388016  0.90768754     0.94740
O303        O  0.13890012  0.66008903  0.83982783    -0.78470
O304        O  0.20745341  0.62176464  0.94204129    -0.83670
C305        C  0.26310423  0.36438787  0.90917694     0.97360
C306        C  0.21508560  0.59679506  0.93132183     1.03280
O307        O  0.26552951  0.33775280  0.89485096    -0.79310
C308        C  0.14333836  0.34845852  0.86621347     1.01580
Fe309      Fe  0.14680497  0.55983192  0.33648913     1.65780
Fe310      Fe  0.18316737  0.56185362  0.25094731     1.73250
Fe311      Fe  0.23051245  0.63106217  0.31108153     1.54410
O312        O  0.20530520  0.31591233  0.35008851    -0.83050
O313        O  0.23290192  0.56495897  0.25833419    -0.81350
O314        O  0.14597255  0.60664666  0.35078265    -0.85550
O315        O  0.18696611  0.56718192  0.37717899    -0.80410
O316        O  0.21755052  0.32376590  0.27069542    -0.82180
O317        O  0.15872240  0.50673239  0.27086423    -0.84930
C318        C  0.22229149  0.58058441  0.37529071     0.95840
C319        C  0.17165247  0.30563684  0.35731515     1.03280
O320        O  0.18600570  0.58399187  0.29949106    -1.13910
O321        O  0.13316005  0.55633315  0.23990598    -0.76340
O322        O  0.10696481  0.55149723  0.29609058    -0.79830
O323        O  0.24285050  0.60379023  0.35069873    -0.80520
C324        C  0.10674186  0.55257608  0.26023828     0.94740
O325        O  0.13891768  0.50854054  0.32810084    -0.78470
O326        O  0.20747020  0.61542184  0.22589221    -0.83670
C327        C  0.26311938  0.59511386  0.25875632     0.97370
C328        C  0.21509980  0.31468899  0.23661384     1.03280
O329        O  0.26554354  0.62417448  0.27307897    -0.79310
C330        C  0.14335616  0.49127606  0.30171517     1.01580
Fe331      Fe  0.04313745  0.55983208  0.16477613     1.65780
Fe332      Fe  0.00879839  0.56185367  0.25031931     1.73250
Fe333      Fe  0.03065914  0.63106327  0.19018546     1.54420
O334        O  0.07405142  0.31591518  0.15118044    -0.83050
O335        O  0.29550272  0.56495954  0.24293459    -0.81350
O336        O  0.09078374  0.60664716  0.15048216    -0.85550
O337        O  0.01032496  0.56718191  0.12408686    -0.80410
O338        O  0.06965683  0.32376622  0.23057228    -0.82180
O339        O  0.31145571  0.50673292  0.23040206    -0.84930
C340        C  0.98840213  0.58058520  0.12597523     0.95840
C341        C  0.09742851  0.30563894  0.14395318     1.03280
O342        O  0.02809673  0.58399232  0.20177516    -1.13910
O343        O  0.05328494  0.55633211  0.26135874    -0.76340
O344        O  0.07464424  0.55149723  0.20517370    -0.79830
O345        O  0.99105000  0.60379236  0.15056678    -0.80520
C346        C  0.07594634  0.55257581  0.24102600     0.94740
O347        O  0.99973426  0.50854051  0.17316514    -0.78470
O348        O  0.03806306  0.61542139  0.27537532    -0.83670
C349        C  0.29543836  0.59511406  0.24251125     0.97370
C350        C  0.06303256  0.31468859  0.26465383     1.03280
O351        O  0.32207310  0.62417456  0.22818759    -0.79310
C352        C  0.31136468  0.49127649  0.19955073     1.01580
Fe353      Fe  0.20440011  0.39856886  0.16982871     1.65780
Fe354      Fe  0.20641900  0.36422611  0.08428536     1.73250
Fe355      Fe  0.27563029  0.38609011  0.14441551     1.54420
O356        O  0.29381744  0.42948526  0.18341812    -0.83050
O357        O  0.20952397  0.65092946  0.09167017    -0.81350
O358        O  0.25121518  0.44621617  0.18412315    -0.85550
O359        O  0.21175228  0.36575949  0.21051791    -0.80410
O360        O  0.96833083  0.42508543  0.10402631    -0.82180
O361        O  0.15129979  0.33355286  0.10420339    -0.84930
C362        C  0.22515695  0.34383807  0.20862949     0.95840
C363        C  0.28354053  0.45286116  0.19065021     1.03280
O364        O  0.22855908  0.38352681  0.13282858    -1.13910
O365        O  0.20089811  0.40871258  0.07324698    -0.76340
O366        O  0.19606296  0.43007318  0.12943155    -0.79830
O367        O  0.24836244  0.34648464  0.18403696    -0.80520
C368        C  0.19714058  0.43137356  0.09357953     0.94740
O369        O  0.15310831  0.35516466  0.16144071    -0.78470
O370        O  0.25998463  0.39348800  0.05922626    -0.83670
C371        C  0.23967831  0.65086513  0.09209110     0.97370
C372        C  0.29258548  0.41845781  0.06994547     1.03280
O373        O  0.26873891  0.34416677  0.10641485    -0.79310
C374        C  0.13584381  0.33346262  0.13505443     1.01580
Fe375      Fe  0.20439333  0.50222347  0.99811381     1.65780
Fe376      Fe  0.20641501  0.53859245  0.08365382     1.73250
Fe377      Fe  0.27562384  0.58593337  0.02351919     1.54410
O378        O  0.29380817  0.56072230  0.98451639    -0.83050
O379        O  0.20952193  0.58832819  0.07626590    -0.81350
O380        O  0.25120676  0.50139004  0.98381659    -0.85550
O381        O  0.21174107  0.54238056  0.95742202    -0.80410
O382        O  0.96832813  0.57297558  0.06390894    -0.82180
O383        O  0.15129387  0.51414785  0.06373445    -0.84930
C384        C  0.22514497  0.57770627  0.95930768     0.95840
C385        C  0.28353064  0.52706948  0.97728486     1.03280
O386        O  0.22855356  0.54142723  0.03511062    -1.13910
O387        O  0.20089259  0.48858467  0.09469714    -0.76340
O388        O  0.19606125  0.46238762  0.03851418    -0.79830
O389        O  0.24835178  0.59826720  0.98389811    -0.80520
C390        C  0.19713848  0.46216654  0.07436617     0.94740
O391        O  0.15310157  0.49433384  0.00650233    -0.78470
O392        O  0.25998370  0.56289538  0.10871125    -0.83670
C393        C  0.23967700  0.61854545  0.07584356     0.97360
C394        C  0.29258482  0.57052598  0.09799058     1.03280
O395        O  0.26873617  0.62096863  0.06151835    -0.79310
C396        C  0.13583714  0.49877629  0.03288513     1.01580
Fe397      Fe  0.15759471  0.45542072  0.83648729     1.65780
Fe398      Fe  0.12123267  0.45339991  0.75094546     1.73250
Fe399      Fe  0.07388716  0.38419087  0.81107956     1.54410
O400        O  0.09909428  0.69934002  0.85008611    -0.83050
O401        O  0.07149807  0.45029454  0.75833214    -0.81350
O402        O  0.15842683  0.40860588  0.85078110    -0.85550
O403        O  0.11743351  0.44807098  0.87717718    -0.80410
O404        O  0.08684909  0.69148749  0.77069317    -0.82180
O405        O  0.14567767  0.50852099  0.77086271    -0.84930
C406        C  0.08210806  0.43466827  0.87528927     0.95840
C407        C  0.13274695  0.37628227  0.85731327     1.03280
O408        O  0.11839402  0.43126121  0.79948918    -1.13910
O409        O  0.17124005  0.45892047  0.73990411    -0.76340
O410        O  0.19743481  0.46375517  0.79608869    -0.79830
O411        O  0.06154904  0.41146247  0.85069730    -0.80520
C412        C  0.19765801  0.46267700  0.76023634     0.94740
O413        O  0.16548275  0.50671234  0.82809897    -0.78470
O414        O  0.09692994  0.39983193  0.72589010    -0.83670
C415        C  0.04128058  0.42013967  0.75875422     0.97360
C416        C  0.08930019  0.36723136  0.73661165     1.03280
O417        O  0.03885623  0.39107903  0.77307714    -0.79310
C418        C  0.16104433  0.52397711  0.80171355     1.01460
Fe419      Fe  0.26126280  0.45542194  0.66477398     1.65780
Fe420      Fe  0.29560167  0.45339976  0.75031705     1.73250
Fe421      Fe  0.27374095  0.38419045  0.69018320     1.54420
O422        O  0.23034876  0.69933882  0.65117828    -0.83050
O423        O  0.00889739  0.45029405  0.74293207    -0.81350
O424        O  0.21361659  0.40860697  0.65047989    -0.85550
O425        O  0.29407528  0.44807231  0.62408466    -0.80410
O426        O  0.23474328  0.69148713  0.73057022    -0.82180
O427        O  0.32627771  0.50852065  0.73039990    -0.84930
C428        C  0.31599809  0.43466900  0.62597309     0.95840
C429        C  0.20697180  0.37628186  0.64395098     1.03280
O430        O  0.27630332  0.43126137  0.70177293    -1.13910
O431        O  0.25111500  0.45892109  0.76135660    -0.76340
O432        O  0.22975591  0.46375654  0.70517166    -0.79830
O433        O  0.31335003  0.41146163  0.65056451    -0.80520
C434        C  0.22845365  0.46267753  0.74102397     0.94740
O435        O  0.30466608  0.50671350  0.67316300    -0.78470
O436        O  0.26633709  0.39983189  0.77537314    -0.83670
C437        C  0.00896173  0.42013952  0.74250888     0.97370
C438        C  0.24136766  0.36723130  0.76465179     1.03280
O439        O  0.31566037  0.39107906  0.72818520    -0.79310
C440        C  0.32636898  0.52397731  0.69954862     1.01580
Fe441      Fe  0.26127235  0.50222388  0.50315303     1.65780
Fe442      Fe  0.29561822  0.53859181  0.41761225     1.73250
Fe443      Fe  0.27374980  0.58593407  0.47774681     1.54420
O444        O  0.23035312  0.56072242  0.51674840    -0.83050
O445        O  0.00891332  0.58832717  0.42499900    -0.81350
O446        O  0.21362525  0.50139026  0.51745084    -0.85550
O447        O  0.29408039  0.54238105  0.54384467    -0.80410
O448        O  0.23475574  0.57297647  0.43735689    -0.82180
O449        O  0.32629444  0.51414686  0.43753086    -0.84930
C450        C  0.31600103  0.57770669  0.54195875     0.95840
C451        C  0.20697920  0.52706963  0.52398120     1.03280
O452        O  0.27631496  0.54142753  0.46615579    -1.13910
O453        O  0.25113318  0.48858400  0.40656976    -0.76340
O454        O  0.22976945  0.46238740  0.46275308    -0.79830
O455        O  0.31335424  0.59826762  0.51736842    -0.80520
C456        C  0.22847032  0.46216613  0.42690078     0.94740
O457        O  0.30467530  0.49433531  0.49476408    -0.78470
O458        O  0.26635348  0.56289553  0.39255506    -0.83670
C459        C  0.00897661  0.61854566  0.42542345     0.97370
C460        C  0.24138269  0.57052588  0.40327558     1.03280
O461        O  0.31567394  0.62096961  0.43974849    -0.79310
C462        C  0.32638133  0.49877721  0.46838079     1.01580
Fe463      Fe  0.15761120  0.39856694  0.33143956     1.65780
Fe464      Fe  0.12125025  0.36422570  0.41698376     1.73250
Fe465      Fe  0.07390375  0.38609100  0.35685217     1.54410
O466        O  0.09911217  0.42948630  0.31784954    -0.83050
O467        O  0.07151479  0.65092944  0.40960183    -0.81350
O468        O  0.15844377  0.44621414  0.31714312    -0.85550
O469        O  0.11745033  0.36575706  0.29075058    -0.80410
O470        O  0.08686459  0.42508651  0.39724111    -0.82180
O471        O  0.14569510  0.33355056  0.39706581    -0.84930
C472        C  0.08212478  0.34383723  0.29263854     0.95840
C473        C  0.13276423  0.45286045  0.31061603     1.03280
O474        O  0.11841066  0.38352601  0.36843980    -1.13910
O475        O  0.17125770  0.40871193  0.42802089    -0.76340
O476        O  0.19745211  0.43007191  0.37183607    -0.79830
O477        O  0.06156644  0.34648519  0.31723086    -0.80520
C478        C  0.19767526  0.43137261  0.40768839     0.94740
O479        O  0.16549922  0.35516317  0.33982898    -0.78470
O480        O  0.09694745  0.39348924  0.44204196    -0.83670
C481        C  0.04129622  0.65086576  0.40917806     0.97370
C482        C  0.08931578  0.41845906  0.43132204     1.03280
O483        O  0.03887129  0.34416789  0.39485258    -0.79310
C484        C  0.16106126  0.33346072  0.36621499     1.01580
Fe485      Fe  0.10000041  0.61668517  0.66982678     1.65780
Fe486      Fe  0.09798160  0.65102777  0.58428335     1.73250
Fe487      Fe  0.36210368  0.62916373  0.64441369     1.54420
O488        O  0.34391679  0.58576898  0.68341688    -0.83050
O489        O  0.09487640  0.36432432  0.59166802    -0.81350
O490        O  0.05318527  0.56903749  0.68412066    -0.85550
O491        O  0.09264761  0.64949413  0.71051594    -0.80410
O492        O  0.33607009  0.59016804  0.60402513    -0.82180
O493        O  0.15310074  0.68170111  0.60420116    -0.84930
C494        C  0.07924327  0.67141583  0.70862726     0.95840
C495        C  0.35419337  0.56239268  0.69064824     1.03280
O496        O  0.07584157  0.63172717  0.63282663    -1.13910
O497        O  0.10350277  0.60654144  0.57324512    -0.76340
O498        O  0.10833829  0.58518130  0.62942983    -0.79830
O499        O  0.05603814  0.66876955  0.68403452    -0.80520
C500        C  0.10726067  0.58388077  0.59357783     0.94740
O501        O  0.15129200  0.66008976  0.66143885    -0.78470
O502        O  0.04441597  0.62176560  0.55922472    -0.83670
C503        C  0.06472205  0.36438862  0.59208923     0.97360
C504        C  0.34514865  0.59679560  0.56994427     1.03280
O505        O  0.03566140  0.33775340  0.60641266    -0.79310
C506        C  0.16855655  0.34845825  0.63505236     1.01580
Fe507      Fe  0.10000816  0.51303074  0.49811279     1.65780
Fe508      Fe  0.09798551  0.47666159  0.58365290     1.73250
Fe509      Fe  0.02877728  0.42932111  0.52351803     1.54410
O510        O  0.34392723  0.45453221  0.48451436    -0.83050
O511        O  0.09487849  0.42692581  0.57626493    -0.81350
O512        O  0.05319479  0.51386467  0.48381626    -0.85550
O513        O  0.09265975  0.47287352  0.45742112    -0.80410
O514        O  0.33607277  0.44227934  0.56390703    -0.82180
O515        O  0.15310677  0.50110604  0.56373404    -0.84930
C516        C  0.07925633  0.43754794  0.45930740     0.95840
C517        C  0.35420443  0.48818514  0.47728390     1.03280
O518        O  0.07584752  0.47382708  0.53510960    -1.13910
O519        O  0.10350797  0.52666939  0.59469599    -0.76340
O520        O  0.10834098  0.55286690  0.53851289    -0.79830
O521        O  0.05604970  0.41698709  0.48389798    -0.80520
C522        C  0.10726295  0.55308778  0.57436484     0.94740
O523        O  0.15129954  0.52091916  0.50650126    -0.78470
O524        O  0.04441655  0.45235874  0.60870971    -0.83670
C525        C  0.06472340  0.39670858  0.57584239     0.97360
C526        C  0.34514899  0.44472851  0.59798874     1.03280
O527        O  0.03566422  0.39428572  0.56151764    -0.79310
C528        C  0.16856366  0.51647685  0.53288449     1.01580
Fe529      Fe  0.04312867  0.84636266  0.00315303     1.65780
Fe530      Fe  0.00878204  0.80999474  0.91761240     1.73250
Fe531      Fe  0.03065055  0.76265207  0.97774668     1.54410
O532        O  0.07404823  0.78786378  0.01674722    -0.83050
O533        O  0.29548683  0.76025947  0.92499916    -0.81350
O534        O  0.09077521  0.84719572  0.01745170    -0.85550
O535        O  0.01031995  0.80620572  0.04384481    -0.80410
O536        O  0.06964387  0.77560898  0.93735581    -0.82180
O537        O  0.31143941  0.83443989  0.93753155    -0.84930
C538        C  0.98839974  0.77087995  0.04195955     0.95840
C539        C  0.09742158  0.82151645  0.02398128     1.03280
O540        O  0.02808559  0.80715882  0.96615582    -1.13910
O541        O  0.05326716  0.86000247  0.90656961    -0.76340
O542        O  0.07463218  0.88619872  0.96275275    -0.79830
O543        O  0.99104676  0.75031892  0.01736946    -0.80520
C544        C  0.07593069  0.88642006  0.92690037     0.94740
O545        O  0.99972664  0.85425258  0.99476400    -0.78470
O546        O  0.03804636  0.78569081  0.89255447    -0.83670
C547        C  0.29542349  0.73004094  0.92542330     0.97360
C548        C  0.06301690  0.77805995  0.90327457     1.03280
O549        O  0.32205907  0.72761664  0.93974891    -0.79310
C550        C  0.31135345  0.84981041  0.96838120     1.01580
Fe551      Fe  0.14678925  0.95001932  0.83143834     1.65780
Fe552      Fe  0.18315031  0.98436108  0.91698240     1.73250
Fe553      Fe  0.23049710  0.96249574  0.85685108     1.54420
O554        O  0.20528856  0.91909963  0.81784941    -0.83050
O555        O  0.23288564  0.69765748  0.90960036    -0.81350
O556        O  0.14595716  0.90237264  0.81714112    -0.85550
O557        O  0.18694987  0.98282978  0.79074924    -0.80410
O558        O  0.21753705  0.92350089  0.89724095    -0.82180
O559        O  0.15870522  0.01503598  0.89706404    -0.84930
C560        C  0.22227552  0.00474923  0.79263669     0.95840
C561        C  0.17163661  0.89572603  0.81061478     1.03280
O562        O  0.18598999  0.96506054  0.86843854    -1.13910
O563        O  0.13314300  0.93987470  0.92801978    -0.76340
O564        O  0.10694872  0.91851378  0.87183515    -0.79830
O565        O  0.24283395  0.00210095  0.81722875    -0.80520
C566        C  0.10672562  0.91721350  0.90768754     0.94740
O567        O  0.13890012  0.99342237  0.83982783    -0.78470
O568        O  0.20745341  0.95509797  0.94204129    -0.83670
C569        C  0.26310423  0.69772120  0.90917694     0.97360
C570        C  0.21508560  0.93012839  0.93132182     1.03280
O571        O  0.26552951  0.67108613  0.89485096    -0.79310
C572        C  0.14333836  0.68179185  0.86621347     1.01580
Fe573      Fe  0.14680497  0.89316526  0.33648913     1.65780
Fe574      Fe  0.18316737  0.89518696  0.25094731     1.73250
Fe575      Fe  0.23051245  0.96439551  0.31108153     1.54410
O576        O  0.20530520  0.64924566  0.35008851    -0.83050
O577        O  0.23290192  0.89829230  0.25833419    -0.81350
O578        O  0.14597255  0.93998000  0.35078265    -0.85550
O579        O  0.18696611  0.90051526  0.37717899    -0.80410
O580        O  0.21755053  0.65709923  0.27069542    -0.82180
O581        O  0.15872240  0.84006573  0.27086423    -0.84930
C582        C  0.22229149  0.91391775  0.37529071     0.95840
C583        C  0.17165247  0.63897018  0.35731515     1.03280
O584        O  0.18600570  0.91732520  0.29949106    -1.13910
O585        O  0.13316005  0.88966648  0.23990598    -0.76340
O586        O  0.10696481  0.88483056  0.29609058    -0.79830
O587        O  0.24285050  0.93712357  0.35069873    -0.80520
C588        C  0.10674186  0.88590941  0.26023828     0.94740
O589        O  0.13891768  0.84187387  0.32810084    -0.78470
O590        O  0.20747020  0.94875517  0.22589221    -0.83670
C591        C  0.26311938  0.92844719  0.25875632     0.97370
C592        C  0.21509980  0.64802233  0.23661384     1.03280
O593        O  0.26554354  0.95750782  0.27307897    -0.79310
C594        C  0.14335616  0.82460939  0.30171517     1.01580
Fe595      Fe  0.04313745  0.89316541  0.16477613     1.65780
Fe596      Fe  0.00879839  0.89518700  0.25031931     1.73250
Fe597      Fe  0.03065914  0.96439660  0.19018546     1.54420
O598        O  0.07405142  0.64924852  0.15118044    -0.83050
O599        O  0.29550272  0.89829287  0.24293459    -0.81350
O600        O  0.09078374  0.93998050  0.15048216    -0.85550
O601        O  0.01032497  0.90051524  0.12408686    -0.80410
O602        O  0.06965683  0.65709955  0.23057228    -0.82180
O603        O  0.31145571  0.84006625  0.23040206    -0.84930
C604        C  0.98840213  0.91391853  0.12597523     0.95840
C605        C  0.09742851  0.63897228  0.14395318     1.03280
O606        O  0.02809673  0.91732565  0.20177516    -1.13910
O607        O  0.05328493  0.88966545  0.26135874    -0.76340
O608        O  0.07464424  0.88483056  0.20517370    -0.79830
O609        O  0.99105000  0.93712569  0.15056678    -0.80520
C610        C  0.07594634  0.88590914  0.24102600     0.94740
O611        O  0.99973426  0.84187384  0.17316514    -0.78470
O612        O  0.03806306  0.94875472  0.27537532    -0.83670
C613        C  0.29543835  0.92844739  0.24251125     0.97370
C614        C  0.06303256  0.64802192  0.26465383     1.03280
O615        O  0.32207310  0.95750790  0.22818759    -0.79310
C616        C  0.31136468  0.82460982  0.19955073     1.01580
Fe617      Fe  0.20440011  0.73190219  0.16982871     1.65780
Fe618      Fe  0.20641900  0.69755944  0.08428536     1.73250
Fe619      Fe  0.27563029  0.71942345  0.14441551     1.54420
O620        O  0.29381744  0.76281860  0.18341812    -0.83050
O621        O  0.20952397  0.98426280  0.09167017    -0.81350
O622        O  0.25121518  0.77954950  0.18412315    -0.85550
O623        O  0.21175228  0.69909283  0.21051791    -0.80410
O624        O  0.96833083  0.75841876  0.10402631    -0.82180
O625        O  0.15129979  0.66688619  0.10420339    -0.84930
C626        C  0.22515695  0.67717140  0.20862949     0.95840
C627        C  0.28354053  0.78619450  0.19065021     1.03280
O628        O  0.22855908  0.71686015  0.13282858    -1.13910
O629        O  0.20089811  0.74204592  0.07324698    -0.76340
O630        O  0.19606296  0.76340652  0.12943155    -0.79830
O631        O  0.24836244  0.67981798  0.18403696    -0.80520
C632        C  0.19714058  0.76470690  0.09357953     0.94740
O633        O  0.15310831  0.68849799  0.16144071    -0.78470
O634        O  0.25998463  0.72682133  0.05922626    -0.83670
C635        C  0.23967831  0.98419847  0.09209110     0.97370
C636        C  0.29258548  0.75179114  0.06994547     1.03280
O637        O  0.26873891  0.67750010  0.10641485    -0.79310
C638        C  0.13584381  0.66679595  0.13505443     1.01580
Fe639      Fe  0.20439333  0.83555680  0.99811381     1.65780
Fe640      Fe  0.20641501  0.87192578  0.08365382     1.73250
Fe641      Fe  0.27562384  0.91926671  0.02351919     1.54410
O642        O  0.29380817  0.89405563  0.98451639    -0.83050
O643        O  0.20952193  0.92166153  0.07626590    -0.81350
O644        O  0.25120676  0.83472337  0.98381659    -0.85550
O645        O  0.21174107  0.87571390  0.95742202    -0.80410
O646        O  0.96832813  0.90630892  0.06390894    -0.82180
O647        O  0.15129387  0.84748118  0.06373445    -0.84930
C648        C  0.22514497  0.91103960  0.95930768     0.95840
C649        C  0.28353064  0.86040281  0.97728486     1.03280
O650        O  0.22855356  0.87476056  0.03511062    -1.13910
O651        O  0.20089259  0.82191800  0.09469714    -0.76340
O652        O  0.19606125  0.79572095  0.03851418    -0.79830
O653        O  0.24835178  0.93160053  0.98389811    -0.80520
C654        C  0.19713848  0.79549987  0.07436617     0.94740
O655        O  0.15310157  0.82766717  0.00650233    -0.78470
O656        O  0.25998370  0.89622871  0.10871124    -0.83670
C657        C  0.23967700  0.95187879  0.07584356     0.97360
C658        C  0.29258482  0.90385931  0.09799058     1.03280
O659        O  0.26873617  0.95430196  0.06151835    -0.79310
C660        C  0.13583714  0.83210962  0.03288513     1.01580
Fe661      Fe  0.15759471  0.78875406  0.83648729     1.65780
Fe662      Fe  0.12123267  0.78673324  0.75094546     1.73250
Fe663      Fe  0.07388716  0.71752421  0.81107956     1.54410
O664        O  0.09909428  0.03267335  0.85008611    -0.83050
O665        O  0.07149807  0.78362787  0.75833214    -0.81350
O666        O  0.15842683  0.74193922  0.85078110    -0.85550
O667        O  0.11743351  0.78140432  0.87717718    -0.80410
O668        O  0.08684909  0.02482082  0.77069317    -0.82180
O669        O  0.14567767  0.84185432  0.77086271    -0.84930
C670        C  0.08210806  0.76800160  0.87528927     0.95840
C671        C  0.13274695  0.70961560  0.85731327     1.03280
O672        O  0.11839402  0.76459455  0.79948918    -1.13910
O673        O  0.17124005  0.79225381  0.73990411    -0.76340
O674        O  0.19743481  0.79708850  0.79608869    -0.79830
O675        O  0.06154904  0.74479581  0.85069730    -0.80520
C676        C  0.19765801  0.79601033  0.76023634     0.94740
O677        O  0.16548275  0.84004567  0.82809897    -0.78470
O678        O  0.09692994  0.73316526  0.72589010    -0.83670
C679        C  0.04128058  0.75347300  0.75875422     0.97360
C680        C  0.08930019  0.70056470  0.73661165     1.03280
O681        O  0.03885623  0.72441237  0.77307714    -0.79310
C682        C  0.16104433  0.85731044  0.80171355     1.01460
Fe683      Fe  0.26126280  0.78875528  0.66477398     1.65780
Fe684      Fe  0.29560167  0.78673309  0.75031705     1.73250
Fe685      Fe  0.27374095  0.71752379  0.69018320     1.54420
O686        O  0.23034876  0.03267216  0.65117828    -0.83050
O687        O  0.00889739  0.78362738  0.74293207    -0.81350
O688        O  0.21361659  0.74194031  0.65047989    -0.85550
O689        O  0.29407528  0.78140564  0.62408466    -0.80410
O690        O  0.23474328  0.02482046  0.73057022    -0.82180
O691        O  0.32627771  0.84185399  0.73039990    -0.84930
C692        C  0.31599809  0.76800234  0.62597309     0.95840
C693        C  0.20697180  0.70961519  0.64395098     1.03280
O694        O  0.27630333  0.76459470  0.70177293    -1.13910
O695        O  0.25111500  0.79225442  0.76135660    -0.76340
O696        O  0.22975591  0.79708988  0.70517166    -0.79830
O697        O  0.31335003  0.74479496  0.65056451    -0.80520
C698        C  0.22845365  0.79601086  0.74102397     0.94740
O699        O  0.30466608  0.84004683  0.67316300    -0.78470
O700        O  0.26633709  0.73316523  0.77537314    -0.83670
C701        C  0.00896173  0.75347286  0.74250888     0.97370
C702        C  0.24136766  0.70056463  0.76465179     1.03280
O703        O  0.31566037  0.72441239  0.72818520    -0.79310
C704        C  0.32636898  0.85731065  0.69954861     1.01580
Fe705      Fe  0.26127235  0.83555721  0.50315303     1.65780
Fe706      Fe  0.29561822  0.87192514  0.41761225     1.73250
Fe707      Fe  0.27374980  0.91926740  0.47774681     1.54420
O708        O  0.23035312  0.89405575  0.51674840    -0.83050
O709        O  0.00891332  0.92166050  0.42499900    -0.81350
O710        O  0.21362525  0.83472359  0.51745084    -0.85550
O711        O  0.29408039  0.87571438  0.54384467    -0.80410
O712        O  0.23475574  0.90630980  0.43735689    -0.82180
O713        O  0.32629444  0.84748019  0.43753086    -0.84930
C714        C  0.31600103  0.91104003  0.54195875     0.95840
C715        C  0.20697920  0.86040296  0.52398119     1.03280
O716        O  0.27631496  0.87476087  0.46615579    -1.13910
O717        O  0.25113318  0.82191733  0.40656976    -0.76340
O718        O  0.22976945  0.79572074  0.46275308    -0.79830
O719        O  0.31335424  0.93160096  0.51736842    -0.80520
C720        C  0.22847032  0.79549947  0.42690078     0.94740
O721        O  0.30467530  0.82766864  0.49476408    -0.78470
O722        O  0.26635348  0.89622887  0.39255506    -0.83670
C723        C  0.00897661  0.95187900  0.42542345     0.97370
C724        C  0.24138269  0.90385921  0.40327558     1.03280
O725        O  0.31567394  0.95430294  0.43974849    -0.79310
C726        C  0.32638133  0.83211054  0.46838079     1.01580
Fe727      Fe  0.15761120  0.73190028  0.33143956     1.65780
Fe728      Fe  0.12125025  0.69755903  0.41698376     1.73250
Fe729      Fe  0.07390375  0.71942433  0.35685217     1.54410
O730        O  0.09911217  0.76281963  0.31784954    -0.83050
O731        O  0.07151479  0.98426277  0.40960183    -0.81350
O732        O  0.15844377  0.77954748  0.31714312    -0.85550
O733        O  0.11745033  0.69909040  0.29075058    -0.80410
O734        O  0.08686459  0.75841984  0.39724111    -0.82180
O735        O  0.14569510  0.66688390  0.39706581    -0.84930
C736        C  0.08212478  0.67717056  0.29263854     0.95840
C737        C  0.13276423  0.78619378  0.31061603     1.03280
O738        O  0.11841066  0.71685935  0.36843980    -1.13910
O739        O  0.17125770  0.74204526  0.42802089    -0.76340
O740        O  0.19745211  0.76340524  0.37183607    -0.79830
O741        O  0.06156644  0.67981853  0.31723086    -0.80520
C742        C  0.19767526  0.76470594  0.40768839     0.94740
O743        O  0.16549922  0.68849650  0.33982898    -0.78470
O744        O  0.09694745  0.72682257  0.44204196    -0.83670
C745        C  0.04129622  0.98419910  0.40917806     0.97370
C746        C  0.08931578  0.75179240  0.43132204     1.03280
O747        O  0.03887129  0.67750122  0.39485258    -0.79310
C748        C  0.16106126  0.66679405  0.36621499     1.01580
Fe749      Fe  0.10000041  0.95001850  0.66982678     1.65780
Fe750      Fe  0.09798160  0.98436111  0.58428335     1.73250
Fe751      Fe  0.36210368  0.96249706  0.64441369     1.54420
O752        O  0.34391679  0.91910231  0.68341688    -0.83050
O753        O  0.09487640  0.69765765  0.59166802    -0.81350
O754        O  0.05318527  0.90237083  0.68412066    -0.85550
O755        O  0.09264761  0.98282746  0.71051594    -0.80410
O756        O  0.33607009  0.92350138  0.60402513    -0.82180
O757        O  0.15310074  0.01503444  0.60420116    -0.84930
C758        C  0.07924327  0.00474916  0.70862726     0.95840
C759        C  0.35419337  0.89572601  0.69064824     1.03280
O760        O  0.07584157  0.96506050  0.63282663    -1.13910
O761        O  0.10350277  0.93987477  0.57324512    -0.76340
O762        O  0.10833829  0.91851463  0.62942983    -0.79830
O763        O  0.05603814  0.00210288  0.68403452    -0.80520
C764        C  0.10726067  0.91721410  0.59357783     0.94740
O765        O  0.15129200  0.99342309  0.66143885    -0.78470
O766        O  0.04441597  0.95509894  0.55922472    -0.83670
C767        C  0.06472205  0.69772196  0.59208923     0.97360
C768        C  0.34514865  0.93012893  0.56994427     1.03280
O769        O  0.03566140  0.67108673  0.60641266    -0.79310
C770        C  0.16855655  0.68179158  0.63505236     1.01580
Fe771      Fe  0.10000816  0.84636407  0.49811279     1.65780
Fe772      Fe  0.09798551  0.80999493  0.58365290     1.73250
Fe773      Fe  0.02877728  0.76265445  0.52351803     1.54410
O774        O  0.34392723  0.78786554  0.48451436    -0.83050
O775        O  0.09487849  0.76025914  0.57626493    -0.81350
O776        O  0.05319479  0.84719800  0.48381626    -0.85550
O777        O  0.09265975  0.80620686  0.45742112    -0.80410
O778        O  0.33607277  0.77561268  0.56390703    -0.82180
O779        O  0.15310677  0.83443938  0.56373404    -0.84930
C780        C  0.07925633  0.77088127  0.45930740     0.95840
C781        C  0.35420443  0.82151848  0.47728390     1.03280
O782        O  0.07584752  0.80716041  0.53510960    -1.13910
O783        O  0.10350797  0.86000273  0.59469599    -0.76340
O784        O  0.10834098  0.88620023  0.53851289    -0.79830
O785        O  0.05604970  0.75032042  0.48389798    -0.80520
C786        C  0.10726295  0.88642112  0.57436484     0.94740
O787        O  0.15129954  0.85425249  0.50650126    -0.78470
O788        O  0.04441655  0.78569207  0.60870971    -0.83670
C789        C  0.06472340  0.73004192  0.57584239     0.97360
C790        C  0.34514899  0.77806184  0.59798874     1.03280
O791        O  0.03566422  0.72761905  0.56151764    -0.79310
C792        C  0.16856366  0.84981018  0.53288449     1.01580
Fe793      Fe  0.37646201  0.17969599  0.00315303     1.65780
Fe794      Fe  0.34211537  0.14332808  0.91761240     1.73250
Fe795      Fe  0.36398389  0.09598541  0.97774668     1.54410
O796        O  0.40738156  0.12119712  0.01674722    -0.83050
O797        O  0.62882016  0.09359280  0.92499916    -0.81350
O798        O  0.42410855  0.18052906  0.01745170    -0.85550
O799        O  0.34365328  0.13953906  0.04384481    -0.80410
O800        O  0.40297721  0.10894231  0.93735581    -0.82180
O801        O  0.64477274  0.16777322  0.93753155    -0.84930
C802        C  0.32173307  0.10421329  0.04195955     0.95840
C803        C  0.43075492  0.15484979  0.02398128     1.03280
O804        O  0.36141892  0.14049215  0.96615582    -1.13910
O805        O  0.38660050  0.19333580  0.90656961    -0.76340
O806        O  0.40796551  0.21953205  0.96275275    -0.79830
O807        O  0.32438010  0.08365225  0.01736946    -0.80520
C808        C  0.40926402  0.21975340  0.92690037     0.94740
O809        O  0.33305997  0.18758592  0.99476400    -0.78470
O810        O  0.37137969  0.11902415  0.89255447    -0.83670
C811        C  0.62875682  0.06337428  0.92542330     0.97360
C812        C  0.39635024  0.11139329  0.90327457     1.03280
O813        O  0.65539240  0.06094997  0.93974891    -0.79310
C814        C  0.64468678  0.18314374  0.96838120     1.01580
Fe815      Fe  0.48012259  0.28335265  0.83143834     1.65780
Fe816      Fe  0.51648365  0.31769441  0.91698240     1.73250
Fe817      Fe  0.56383044  0.29582908  0.85685108     1.54420
O818        O  0.53862190  0.25243296  0.81784941    -0.83050
O819        O  0.56621898  0.03099081  0.90960036    -0.81350
O820        O  0.47929050  0.23570597  0.81714112    -0.85550
O821        O  0.52028320  0.31616312  0.79074924    -0.80410
O822        O  0.55087039  0.25683422  0.89724095    -0.82180
O823        O  0.49203855  0.34836932  0.89706404    -0.84930
C824        C  0.55560885  0.33808256  0.79263669     0.95840
C825        C  0.50496994  0.22905937  0.81061478     1.03280
O826        O  0.51932333  0.29839387  0.86843854    -1.13910
O827        O  0.46647633  0.27320803  0.92801978    -0.76340
O828        O  0.44028205  0.25184711  0.87183515    -0.79830
O829        O  0.57616728  0.33543429  0.81722875    -0.80520
C830        C  0.44005895  0.25054683  0.90768754     0.94740
O831        O  0.47223345  0.32675570  0.83982783    -0.78470
O832        O  0.54078674  0.28843131  0.94204129    -0.83670
C833        C  0.59643756  0.03105453  0.90917694     0.97360
C834        C  0.54841894  0.26346173  0.93132183     1.03280
O835        O  0.59886284  0.00441946  0.89485096    -0.79310
C836        C  0.47667169  0.01512519  0.86621347     1.01580
Fe837      Fe  0.48013830  0.22649859  0.33648913     1.65780
Fe838      Fe  0.51650070  0.22852029  0.25094731     1.73250
Fe839      Fe  0.56384579  0.29772884  0.31108153     1.54410
O840        O  0.53863854  0.98257899  0.35008851    -0.83050
O841        O  0.56623526  0.23162564  0.25833419    -0.81350
O842        O  0.47930588  0.27331333  0.35078266    -0.85550
O843        O  0.52029944  0.23384859  0.37717899    -0.80410
O844        O  0.55088386  0.99043256  0.27069542    -0.82180
O845        O  0.49205573  0.17339906  0.27086423    -0.84930
C846        C  0.55562483  0.24725108  0.37529071     0.95840
C847        C  0.50498580  0.97230351  0.35731515     1.03280
O848        O  0.51933903  0.25065854  0.29949106    -1.13910
O849        O  0.46649338  0.22299982  0.23990598    -0.76340
O850        O  0.44029814  0.21816390  0.29609058    -0.79830
O851        O  0.57618383  0.27045690  0.35069873    -0.80520
C852        C  0.44007520  0.21924275  0.26023828     0.94740
O853        O  0.47225102  0.17520720  0.32810084    -0.78470
O854        O  0.54080354  0.28208851  0.22589221    -0.83670
C855        C  0.59645271  0.26178052  0.25875632     0.97370
C856        C  0.54843313  0.98135566  0.23661384     1.03280
O857        O  0.59887688  0.29084115  0.27307897    -0.79310
C858        C  0.47668949  0.15794272  0.30171517     1.01580
Fe859      Fe  0.37647078  0.22649875  0.16477613     1.65780
Fe860      Fe  0.34213172  0.22852034  0.25031931     1.73250
Fe861      Fe  0.36399248  0.29772993  0.19018546     1.54420
O862        O  0.40738476  0.98258185  0.15118044    -0.83050
O863        O  0.62883606  0.23162620  0.24293459    -0.81350
O864        O  0.42411707  0.27331383  0.15048216    -0.85550
O865        O  0.34365830  0.23384858  0.12408686    -0.80410
O866        O  0.40299017  0.99043288  0.23057228    -0.82180
O867        O  0.64478905  0.17339958  0.23040206    -0.84930
C868        C  0.32173546  0.24725186  0.12597523     0.95840
C869        C  0.43076184  0.97230561  0.14395318     1.03280
O870        O  0.36143007  0.25065898  0.20177516    -1.13910
O871        O  0.38661827  0.22299878  0.26135874    -0.76340
O872        O  0.40797758  0.21816390  0.20517370    -0.79830
O873        O  0.32438334  0.27045902  0.15056678    -0.80520
C874        C  0.40927967  0.21924248  0.24102600     0.94740
O875        O  0.33306759  0.17520718  0.17316514    -0.78470
O876        O  0.37139639  0.28208805  0.27537532    -0.83670
C877        C  0.62877169  0.26178072  0.24251125     0.97370
C878        C  0.39636589  0.98135526  0.26465383     1.03280
O879        O  0.65540643  0.29084123  0.22818759    -0.79310
C880        C  0.64469801  0.15794315  0.19955073     1.01580
Fe881      Fe  0.53773344  0.06523553  0.16982871     1.65780
Fe882      Fe  0.53975233  0.03089277  0.08428536     1.73250
Fe883      Fe  0.60896363  0.05275678  0.14441551     1.54420
O884        O  0.62715078  0.09615193  0.18341812    -0.83050
O885        O  0.54285730  0.31759613  0.09167017    -0.81350
O886        O  0.58454851  0.11288284  0.18412315    -0.85550
O887        O  0.54508562  0.03242616  0.21051791    -0.80410
O888        O  0.30166416  0.09175210  0.10402631    -0.82180
O889        O  0.48463312  0.00021952  0.10420339    -0.84930
C890        C  0.55849029  0.01050473  0.20862949     0.95840
C891        C  0.61687386  0.11952783  0.19065021     1.03280
O892        O  0.56189242  0.05019348  0.13282858    -1.13910
O893        O  0.53423145  0.07537925  0.07324698    -0.76340
O894        O  0.52939629  0.09673985  0.12943155    -0.79830
O895        O  0.58169578  0.01315131  0.18403696    -0.80520
C896        C  0.53047391  0.09804023  0.09357953     0.94740
O897        O  0.48644164  0.02183133  0.16144071    -0.78470
O898        O  0.59331796  0.06015467  0.05922626    -0.83670
C899        C  0.57301164  0.31753180  0.09209110     0.97370
C900        C  0.62591881  0.08512448  0.06994547     1.03280
O901        O  0.60207224  0.01083343  0.10641485    -0.79310
C902        C  0.46917715  0.00012929  0.13505443     1.01580
Fe903      Fe  0.53772666  0.16889014  0.99811381     1.65780
Fe904      Fe  0.53974834  0.20525911  0.08365382     1.73250
Fe905      Fe  0.60895717  0.25260004  0.02351919     1.54410
O906        O  0.62714150  0.22738897  0.98451639    -0.83050
O907        O  0.54285526  0.25499486  0.07626590    -0.81350
O908        O  0.58454010  0.16805670  0.98381659    -0.85550
O909        O  0.54507441  0.20904723  0.95742202    -0.80410
O910        O  0.30166146  0.23964225  0.06390894    -0.82180
O911        O  0.48462720  0.18081452  0.06373445    -0.84930
C912        C  0.55847830  0.24437293  0.95930768     0.95840
C913        C  0.61686398  0.19373614  0.97728486     1.03280
O914        O  0.56188689  0.20809390  0.03511062    -1.13910
O915        O  0.53422593  0.15525134  0.09469714    -0.76340
O916        O  0.52939458  0.12905428  0.03851418    -0.79830
O917        O  0.58168512  0.26493386  0.98389811    -0.80520
C918        C  0.53047181  0.12883321  0.07436617     0.94740
O919        O  0.48643490  0.16100050  0.00650233    -0.78470
O920        O  0.59331704  0.22956204  0.10871125    -0.83670
C921        C  0.57301033  0.28521212  0.07584356     0.97360
C922        C  0.62591815  0.23719264  0.09799058     1.03280
O923        O  0.60206950  0.28763530  0.06151835    -0.79310
C924        C  0.46917048  0.16544295  0.03288513     1.01580
Fe925      Fe  0.49092804  0.12208739  0.83648729     1.65780
Fe926      Fe  0.45456600  0.12006658  0.75094546     1.73250
Fe927      Fe  0.40722049  0.05085754  0.81107956     1.54410
O928        O  0.43242761  0.36600669  0.85008611    -0.83050
O929        O  0.40483140  0.11696120  0.75833214    -0.81350
O930        O  0.49176016  0.07527255  0.85078110    -0.85550
O931        O  0.45076684  0.11473765  0.87717718    -0.80410
O932        O  0.42018242  0.35815416  0.77069317    -0.82180
O933        O  0.47901100  0.17518766  0.77086271    -0.84930
C934        C  0.41544140  0.10133494  0.87528927     0.95840
C935        C  0.46608028  0.04294894  0.85731327     1.03280
O936        O  0.45172736  0.09792788  0.79948918    -1.13910
O937        O  0.50457338  0.12558714  0.73990411    -0.76340
O938        O  0.53076815  0.13042183  0.79608869    -0.79830
O939        O  0.39488237  0.07812914  0.85069730    -0.80520
C940        C  0.53099134  0.12934366  0.76023634     0.94740
O941        O  0.49881608  0.17337900  0.82809897    -0.78470
O942        O  0.43026327  0.06649860  0.72589010    -0.83670
C943        C  0.37461391  0.08680633  0.75875422     0.97360
C944        C  0.42263353  0.03389803  0.73661165     1.03280
O945        O  0.37218957  0.05774570  0.77307714    -0.79310
C946        C  0.49437767  0.19064377  0.80171355     1.01460
Fe947      Fe  0.59459613  0.12208861  0.66477398     1.65780
Fe948      Fe  0.62893500  0.12006643  0.75031705     1.73250
Fe949      Fe  0.60707428  0.05085712  0.69018320     1.54420
O950        O  0.56368210  0.36600549  0.65117828    -0.83050
O951        O  0.34223072  0.11696072  0.74293207    -0.81350
O952        O  0.54694992  0.07527364  0.65047989    -0.85550
O953        O  0.62740862  0.11473898  0.62408466    -0.80410
O954        O  0.56807662  0.35815380  0.73057022    -0.82180
O955        O  0.65961105  0.17518732  0.73039990    -0.84930
C956        C  0.64933142  0.10133567  0.62597309     0.95840
C957        C  0.54030513  0.04294852  0.64395098     1.03280
O958        O  0.60963666  0.09792803  0.70177293    -1.13910
O959        O  0.58444834  0.12558775  0.76135660    -0.76340
O960        O  0.56308924  0.13042321  0.70517166    -0.79830
O961        O  0.64668337  0.07812829  0.65056451    -0.80520
C962        C  0.56178698  0.12934420  0.74102397     0.94740
O963        O  0.63799942  0.17338017  0.67316300    -0.78470
O964        O  0.59967043  0.06649856  0.77537314    -0.83670
C965        C  0.34229506  0.08680619  0.74250888     0.97370
C966        C  0.57470099  0.03389797  0.76465179     1.03280
O967        O  0.64899370  0.05774572  0.72818520    -0.79310
C968        C  0.65970232  0.19064398  0.69954861     1.01580
Fe969      Fe  0.59460568  0.16889055  0.50315303     1.65780
Fe970      Fe  0.62895155  0.20525847  0.41761225     1.73250
Fe971      Fe  0.60708313  0.25260074  0.47774681     1.54420
O972        O  0.56368646  0.22738909  0.51674840    -0.83050
O973        O  0.34224665  0.25499384  0.42499900    -0.81350
O974        O  0.54695859  0.16805692  0.51745084    -0.85550
O975        O  0.62741373  0.20904771  0.54384467    -0.80410
O976        O  0.56808907  0.23964313  0.43735689    -0.82180
O977        O  0.65962777  0.18081352  0.43753086    -0.84930
C978        C  0.64933436  0.24437336  0.54195875     0.95840
C979        C  0.54031253  0.19373629  0.52398120     1.03280
O980        O  0.60964829  0.20809420  0.46615579    -1.13910
O981        O  0.58446652  0.15525067  0.40656976    -0.76340
O982        O  0.56310278  0.12905407  0.46275308    -0.79830
O983        O  0.64668758  0.26493429  0.51736842    -0.80520
C984        C  0.56180366  0.12883280  0.42690078     0.94740
O985        O  0.63800863  0.16100198  0.49476408    -0.78470
O986        O  0.59968681  0.22956220  0.39255506    -0.83670
C987        C  0.34230994  0.28521233  0.42542345     0.97370
C988        C  0.57471602  0.23719255  0.40327558     1.03280
O989        O  0.64900728  0.28763627  0.43974849    -0.79310
C990        C  0.65971466  0.16544388  0.46838079     1.01580
Fe991      Fe  0.49094453  0.06523361  0.33143956     1.65780
Fe992      Fe  0.45458358  0.03089237  0.41698376     1.73250
Fe993      Fe  0.40723708  0.05275766  0.35685217     1.54410
O994        O  0.43244550  0.09615297  0.31784954    -0.83050
O995        O  0.40484812  0.31759610  0.40960183    -0.81350
O996        O  0.49177710  0.11288081  0.31714312    -0.85550
O997        O  0.45078366  0.03242373  0.29075058    -0.80410
O998        O  0.42019792  0.09175317  0.39724111    -0.82180
O999        O  0.47902843  0.00021723  0.39706581    -0.84930
C1000       C  0.41545812  0.01050389  0.29263854     0.95840
C1001       C  0.46609756  0.11952712  0.31061603     1.03280
O1002       O  0.45174400  0.05019268  0.36843980    -1.13910
O1003       O  0.50459104  0.07537860  0.42802089    -0.76340
O1004       O  0.53078544  0.09673858  0.37183607    -0.79830
O1005       O  0.39489978  0.01315186  0.31723086    -0.80520
C1006       C  0.53100859  0.09803927  0.40768839     0.94740
O1007       O  0.49883256  0.02182983  0.33982898    -0.78470
O1008       O  0.43028078  0.06015590  0.44204196    -0.83670
C1009       C  0.37462956  0.31753243  0.40917806     0.97370
C1010       C  0.42264911  0.08512573  0.43132204     1.03280
O1011       O  0.37220462  0.01083455  0.39485258    -0.79310
C1012       C  0.49439459  0.00012739  0.36621499     1.01580
Fe1013     Fe  0.43333375  0.28335184  0.66982678     1.65780
Fe1014     Fe  0.43131494  0.31769444  0.58428335     1.73250
Fe1015     Fe  0.69543701  0.29583040  0.64441369     1.54420
O1016       O  0.67725012  0.25243564  0.68341688    -0.83050
O1017       O  0.42820973  0.03099098  0.59166802    -0.81350
O1018       O  0.38651860  0.23570416  0.68412066    -0.85550
O1019       O  0.42598095  0.31616080  0.71051594    -0.80410
O1020       O  0.66940343  0.25683471  0.60402513    -0.82180
O1021       O  0.48643407  0.34836777  0.60420116    -0.84930
C1022       C  0.41257660  0.33808250  0.70862726     0.95840
C1023       C  0.68752670  0.22905935  0.69064824     1.03280
O1024       O  0.40917490  0.29839383  0.63282663    -1.13910
O1025       O  0.43683610  0.27320811  0.57324512    -0.76340
O1026       O  0.44167162  0.25184797  0.62942983    -0.79830
O1027       O  0.38937147  0.33543621  0.68403452    -0.80520
C1028       C  0.44059400  0.25054744  0.59357783     0.94740
O1029       O  0.48462533  0.32675643  0.66143885    -0.78470
O1030       O  0.37774931  0.28843227  0.55922472    -0.83670
C1031       C  0.39805538  0.03105529  0.59208923     0.97360
C1032       C  0.67848199  0.26346227  0.56994427     1.03280
O1033       O  0.36899473  0.00442006  0.60641266    -0.79310
C1034       C  0.50188988  0.01512492  0.63505236     1.01580
Fe1035     Fe  0.43334150  0.17969741  0.49811279     1.65780
Fe1036     Fe  0.43131884  0.14332826  0.58365290     1.73250
Fe1037     Fe  0.36211062  0.09598778  0.52351803     1.54410
O1038       O  0.67726057  0.12119887  0.48451436    -0.83050
O1039       O  0.42821182  0.09359248  0.57626493    -0.81350
O1040       O  0.38652812  0.18053133  0.48381626    -0.85550
O1041       O  0.42599309  0.13954019  0.45742112    -0.80410
O1042       O  0.66940610  0.10894601  0.56390703    -0.82180
O1043       O  0.48644010  0.16777271  0.56373404    -0.84930
C1044       C  0.41258967  0.10421460  0.45930740     0.95840
C1045       C  0.68753776  0.15485181  0.47728390     1.03280
O1046       O  0.40918086  0.14049375  0.53510960    -1.13910
O1047       O  0.43684130  0.19333606  0.59469599    -0.76340
O1048       O  0.44167431  0.21953356  0.53851289    -0.79830
O1049       O  0.38938303  0.08365375  0.48389798    -0.80520
C1050       C  0.44059628  0.21975445  0.57436484     0.94740
O1051       O  0.48463287  0.18758582  0.50650126    -0.78470
O1052       O  0.37774989  0.11902540  0.60870971    -0.83670
C1053       C  0.39805673  0.06337525  0.57584239     0.97360
C1054       C  0.67848232  0.11139517  0.59798874     1.03280
O1055       O  0.36899755  0.06095238  0.56151764    -0.79310
C1056       C  0.50189699  0.18314352  0.53288449     1.01580
Fe1057     Fe  0.37646201  0.51302933  0.00315303     1.65780
Fe1058     Fe  0.34211537  0.47666141  0.91761240     1.73250
Fe1059     Fe  0.36398389  0.42931874  0.97774668     1.54410
O1060       O  0.40738156  0.45453045  0.01674722    -0.83050
O1061       O  0.62882016  0.42692613  0.92499916    -0.81350
O1062       O  0.42410855  0.51386239  0.01745170    -0.85550
O1063       O  0.34365328  0.47287239  0.04384481    -0.80410
O1064       O  0.40297721  0.44227564  0.93735581    -0.82180
O1065       O  0.64477274  0.50110656  0.93753155    -0.84930
C1066       C  0.32173307  0.43754662  0.04195955     0.95840
C1067       C  0.43075492  0.48818312  0.02398128     1.03280
O1068       O  0.36141892  0.47382549  0.96615582    -1.13910
O1069       O  0.38660050  0.52666913  0.90656961    -0.76340
O1070       O  0.40796551  0.55286539  0.96275275    -0.79830
O1071       O  0.32438010  0.41698558  0.01736946    -0.80520
C1072       C  0.40926402  0.55308673  0.92690037     0.94740
O1073       O  0.33305997  0.52091925  0.99476400    -0.78470
O1074       O  0.37137969  0.45235748  0.89255447    -0.83670
C1075       C  0.62875682  0.39670761  0.92542330     0.97360
C1076       C  0.39635024  0.44472662  0.90327457     1.03280
O1077       O  0.65539240  0.39428330  0.93974891    -0.79310
C1078       C  0.64468678  0.51647707  0.96838120     1.01580
Fe1079     Fe  0.48012259  0.61668599  0.83143834     1.65780
Fe1080     Fe  0.51648365  0.65102775  0.91698240     1.73250
Fe1081     Fe  0.56383044  0.62916241  0.85685109     1.54420
O1082       O  0.53862190  0.58576629  0.81784941    -0.83050
O1083       O  0.56621897  0.36432414  0.90960036    -0.81350
O1084       O  0.47929050  0.56903930  0.81714112    -0.85550
O1085       O  0.52028320  0.64949645  0.79074924    -0.80410
O1086       O  0.55087039  0.59016755  0.89724095    -0.82180
O1087       O  0.49203855  0.68170265  0.89706404    -0.84930
C1088       C  0.55560885  0.67141589  0.79263669     0.95840
C1089       C  0.50496994  0.56239270  0.81061478     1.03280
O1090       O  0.51932333  0.63172721  0.86843855    -1.13910
O1091       O  0.46647633  0.60654136  0.92801978    -0.76340
O1092       O  0.44028205  0.58518044  0.87183515    -0.79830
O1093       O  0.57616728  0.66876762  0.81722875    -0.80520
C1094       C  0.44005895  0.58388016  0.90768754     0.94740
O1095       O  0.47223345  0.66008903  0.83982783    -0.78470
O1096       O  0.54078674  0.62176464  0.94204129    -0.83670
C1097       C  0.59643756  0.36438787  0.90917694     0.97360
C1098       C  0.54841894  0.59679506  0.93132183     1.03280
O1099       O  0.59886284  0.33775280  0.89485096    -0.79310
C1100       C  0.47667169  0.34845852  0.86621347     1.01580
Fe1101     Fe  0.48013830  0.55983193  0.33648913     1.65780
Fe1102     Fe  0.51650070  0.56185362  0.25094731     1.73250
Fe1103     Fe  0.56384579  0.63106217  0.31108153     1.54410
O1104       O  0.53863854  0.31591233  0.35008851    -0.83050
O1105       O  0.56623526  0.56495897  0.25833419    -0.81350
O1106       O  0.47930588  0.60664666  0.35078265    -0.85550
O1107       O  0.52029945  0.56718192  0.37717899    -0.80410
O1108       O  0.55088386  0.32376590  0.27069542    -0.82180
O1109       O  0.49205573  0.50673239  0.27086423    -0.84930
C1110       C  0.55562483  0.58058441  0.37529071     0.95840
C1111       C  0.50498580  0.30563684  0.35731515     1.03280
O1112       O  0.51933903  0.58399187  0.29949106    -1.13910
O1113       O  0.46649338  0.55633315  0.23990598    -0.76340
O1114       O  0.44029814  0.55149723  0.29609058    -0.79830
O1115       O  0.57618383  0.60379023  0.35069873    -0.80520
C1116       C  0.44007520  0.55257608  0.26023828     0.94740
O1117       O  0.47225102  0.50854054  0.32810084    -0.78470
O1118       O  0.54080354  0.61542184  0.22589221    -0.83670
C1119       C  0.59645271  0.59511386  0.25875632     0.97370
C1120       C  0.54843313  0.31468899  0.23661384     1.03280
O1121       O  0.59887688  0.62417448  0.27307897    -0.79310
C1122       C  0.47668949  0.49127606  0.30171517     1.01580
Fe1123     Fe  0.37647078  0.55983208  0.16477613     1.65780
Fe1124     Fe  0.34213172  0.56185367  0.25031931     1.73250
Fe1125     Fe  0.36399248  0.63106327  0.19018546     1.54420
O1126       O  0.40738476  0.31591518  0.15118044    -0.83050
O1127       O  0.62883606  0.56495954  0.24293459    -0.81350
O1128       O  0.42411707  0.60664716  0.15048216    -0.85550
O1129       O  0.34365830  0.56718191  0.12408686    -0.80410
O1130       O  0.40299017  0.32376621  0.23057228    -0.82180
O1131       O  0.64478905  0.50673292  0.23040206    -0.84930
C1132       C  0.32173546  0.58058520  0.12597523     0.95840
C1133       C  0.43076184  0.30563894  0.14395318     1.03280
O1134       O  0.36143007  0.58399232  0.20177516    -1.13910
O1135       O  0.38661827  0.55633211  0.26135874    -0.76340
O1136       O  0.40797758  0.55149723  0.20517370    -0.79830
O1137       O  0.32438334  0.60379236  0.15056678    -0.80520
C1138       C  0.40927967  0.55257581  0.24102600     0.94740
O1139       O  0.33306759  0.50854051  0.17316514    -0.78470
O1140       O  0.37139639  0.61542139  0.27537532    -0.83670
C1141       C  0.62877169  0.59511406  0.24251125     0.97370
C1142       C  0.39636589  0.31468859  0.26465383     1.03280
O1143       O  0.65540643  0.62417456  0.22818759    -0.79310
C1144       C  0.64469801  0.49127649  0.19955073     1.01580
Fe1145     Fe  0.53773344  0.39856886  0.16982871     1.65780
Fe1146     Fe  0.53975233  0.36422611  0.08428536     1.73250
Fe1147     Fe  0.60896362  0.38609011  0.14441551     1.54420
O1148       O  0.62715078  0.42948527  0.18341812    -0.83050
O1149       O  0.54285730  0.65092946  0.09167017    -0.81350
O1150       O  0.58454851  0.44621617  0.18412315    -0.85550
O1151       O  0.54508562  0.36575949  0.21051791    -0.80410
O1152       O  0.30166416  0.42508543  0.10402631    -0.82180
O1153       O  0.48463312  0.33355286  0.10420339    -0.84930
C1154       C  0.55849029  0.34383807  0.20862949     0.95840
C1155       C  0.61687386  0.45286116  0.19065021     1.03280
O1156       O  0.56189242  0.38352681  0.13282858    -1.13910
O1157       O  0.53423145  0.40871258  0.07324698    -0.76340
O1158       O  0.52939629  0.43007318  0.12943155    -0.79830
O1159       O  0.58169578  0.34648465  0.18403696    -0.80520
C1160       C  0.53047391  0.43137356  0.09357953     0.94740
O1161       O  0.48644164  0.35516466  0.16144071    -0.78470
O1162       O  0.59331796  0.39348800  0.05922626    -0.83670
C1163       C  0.57301164  0.65086513  0.09209110     0.97370
C1164       C  0.62591881  0.41845781  0.06994547     1.03280
O1165       O  0.60207224  0.34416677  0.10641485    -0.79310
C1166       C  0.46917715  0.33346262  0.13505443     1.01580
Fe1167     Fe  0.53772666  0.50222347  0.99811381     1.65780
Fe1168     Fe  0.53974834  0.53859245  0.08365382     1.73250
Fe1169     Fe  0.60895717  0.58593337  0.02351919     1.54410
O1170       O  0.62714150  0.56072230  0.98451639    -0.83050
O1171       O  0.54285526  0.58832819  0.07626590    -0.81350
O1172       O  0.58454010  0.50139004  0.98381659    -0.85550
O1173       O  0.54507441  0.54238056  0.95742202    -0.80410
O1174       O  0.30166146  0.57297558  0.06390894    -0.82180
O1175       O  0.48462720  0.51414785  0.06373445    -0.84930
C1176       C  0.55847830  0.57770627  0.95930768     0.95840
C1177       C  0.61686398  0.52706948  0.97728486     1.03280
O1178       O  0.56188689  0.54142723  0.03511062    -1.13910
O1179       O  0.53422593  0.48858467  0.09469714    -0.76340
O1180       O  0.52939458  0.46238762  0.03851418    -0.79830
O1181       O  0.58168512  0.59826720  0.98389811    -0.80520
C1182       C  0.53047181  0.46216654  0.07436617     0.94740
O1183       O  0.48643490  0.49433384  0.00650233    -0.78470
O1184       O  0.59331704  0.56289538  0.10871125    -0.83670
C1185       C  0.57301033  0.61854545  0.07584356     0.97360
C1186       C  0.62591815  0.57052598  0.09799058     1.03280
O1187       O  0.60206950  0.62096863  0.06151835    -0.79310
C1188       C  0.46917048  0.49877629  0.03288513     1.01580
Fe1189     Fe  0.49092804  0.45542072  0.83648729     1.65780
Fe1190     Fe  0.45456600  0.45339991  0.75094546     1.73250
Fe1191     Fe  0.40722049  0.38419087  0.81107956     1.54410
O1192       O  0.43242761  0.69934002  0.85008611    -0.83050
O1193       O  0.40483140  0.45029454  0.75833214    -0.81350
O1194       O  0.49176016  0.40860588  0.85078110    -0.85550
O1195       O  0.45076684  0.44807098  0.87717718    -0.80410
O1196       O  0.42018242  0.69148749  0.77069317    -0.82180
O1197       O  0.47901100  0.50852099  0.77086271    -0.84930
C1198       C  0.41544140  0.43466827  0.87528927     0.95840
C1199       C  0.46608028  0.37628227  0.85731328     1.03280
O1200       O  0.45172736  0.43126121  0.79948918    -1.13910
O1201       O  0.50457338  0.45892047  0.73990411    -0.76340
O1202       O  0.53076815  0.46375517  0.79608869    -0.79830
O1203       O  0.39488237  0.41146247  0.85069730    -0.80520
C1204       C  0.53099134  0.46267700  0.76023634     0.94740
O1205       O  0.49881608  0.50671234  0.82809897    -0.78470
O1206       O  0.43026327  0.39983193  0.72589010    -0.83670
C1207       C  0.37461391  0.42013967  0.75875422     0.97360
C1208       C  0.42263353  0.36723136  0.73661165     1.03280
O1209       O  0.37218957  0.39107903  0.77307714    -0.79310
C1210       C  0.49437767  0.52397711  0.80171355     1.01460
Fe1211     Fe  0.59459613  0.45542194  0.66477398     1.65780
Fe1212     Fe  0.62893500  0.45339976  0.75031705     1.73250
Fe1213     Fe  0.60707428  0.38419045  0.69018320     1.54420
O1214       O  0.56368210  0.69933882  0.65117828    -0.83050
O1215       O  0.34223072  0.45029405  0.74293207    -0.81350
O1216       O  0.54694992  0.40860697  0.65047989    -0.85550
O1217       O  0.62740862  0.44807231  0.62408466    -0.80410
O1218       O  0.56807662  0.69148713  0.73057022    -0.82180
O1219       O  0.65961105  0.50852065  0.73039990    -0.84930
C1220       C  0.64933142  0.43466900  0.62597309     0.95840
C1221       C  0.54030513  0.37628186  0.64395098     1.03280
O1222       O  0.60963666  0.43126137  0.70177293    -1.13910
O1223       O  0.58444834  0.45892109  0.76135660    -0.76340
O1224       O  0.56308924  0.46375654  0.70517166    -0.79830
O1225       O  0.64668337  0.41146163  0.65056451    -0.80520
C1226       C  0.56178698  0.46267753  0.74102397     0.94740
O1227       O  0.63799942  0.50671350  0.67316300    -0.78470
O1228       O  0.59967043  0.39983189  0.77537314    -0.83670
C1229       C  0.34229506  0.42013952  0.74250888     0.97370
C1230       C  0.57470099  0.36723130  0.76465179     1.03280
O1231       O  0.64899370  0.39107906  0.72818520    -0.79310
C1232       C  0.65970232  0.52397731  0.69954861     1.01580
Fe1233     Fe  0.59460568  0.50222388  0.50315303     1.65780
Fe1234     Fe  0.62895155  0.53859181  0.41761225     1.73250
Fe1235     Fe  0.60708313  0.58593407  0.47774681     1.54420
O1236       O  0.56368646  0.56072242  0.51674840    -0.83050
O1237       O  0.34224665  0.58832717  0.42499900    -0.81350
O1238       O  0.54695859  0.50139026  0.51745084    -0.85550
O1239       O  0.62741373  0.54238105  0.54384467    -0.80410
O1240       O  0.56808907  0.57297647  0.43735689    -0.82180
O1241       O  0.65962777  0.51414686  0.43753086    -0.84930
C1242       C  0.64933436  0.57770669  0.54195875     0.95840
C1243       C  0.54031253  0.52706963  0.52398120     1.03280
O1244       O  0.60964829  0.54142753  0.46615579    -1.13910
O1245       O  0.58446652  0.48858400  0.40656976    -0.76340
O1246       O  0.56310278  0.46238740  0.46275308    -0.79830
O1247       O  0.64668758  0.59826762  0.51736842    -0.80520
C1248       C  0.56180366  0.46216613  0.42690078     0.94740
O1249       O  0.63800863  0.49433531  0.49476408    -0.78470
O1250       O  0.59968681  0.56289553  0.39255506    -0.83670
C1251       C  0.34230994  0.61854566  0.42542345     0.97370
C1252       C  0.57471602  0.57052588  0.40327558     1.03280
O1253       O  0.64900728  0.62096961  0.43974849    -0.79310
C1254       C  0.65971466  0.49877721  0.46838079     1.01580
Fe1255     Fe  0.49094453  0.39856694  0.33143956     1.65780
Fe1256     Fe  0.45458358  0.36422570  0.41698376     1.73250
Fe1257     Fe  0.40723708  0.38609100  0.35685217     1.54410
O1258       O  0.43244550  0.42948630  0.31784954    -0.83050
O1259       O  0.40484812  0.65092944  0.40960183    -0.81350
O1260       O  0.49177710  0.44621414  0.31714312    -0.85550
O1261       O  0.45078366  0.36575706  0.29075058    -0.80410
O1262       O  0.42019792  0.42508651  0.39724111    -0.82180
O1263       O  0.47902843  0.33355056  0.39706581    -0.84930
C1264       C  0.41545812  0.34383723  0.29263854     0.95840
C1265       C  0.46609756  0.45286045  0.31061603     1.03280
O1266       O  0.45174400  0.38352601  0.36843980    -1.13910
O1267       O  0.50459104  0.40871193  0.42802089    -0.76340
O1268       O  0.53078544  0.43007191  0.37183607    -0.79830
O1269       O  0.39489977  0.34648519  0.31723086    -0.80520
C1270       C  0.53100859  0.43137261  0.40768839     0.94740
O1271       O  0.49883256  0.35516317  0.33982898    -0.78470
O1272       O  0.43028078  0.39348924  0.44204196    -0.83670
C1273       C  0.37462956  0.65086576  0.40917806     0.97370
C1274       C  0.42264911  0.41845906  0.43132204     1.03280
O1275       O  0.37220462  0.34416789  0.39485258    -0.79310
C1276       C  0.49439459  0.33346072  0.36621499     1.01580
Fe1277     Fe  0.43333375  0.61668517  0.66982678     1.65780
Fe1278     Fe  0.43131494  0.65102777  0.58428335     1.73250
Fe1279     Fe  0.69543701  0.62916373  0.64441369     1.54420
O1280       O  0.67725012  0.58576898  0.68341688    -0.83050
O1281       O  0.42820973  0.36432432  0.59166802    -0.81350
O1282       O  0.38651860  0.56903749  0.68412066    -0.85550
O1283       O  0.42598095  0.64949413  0.71051594    -0.80410
O1284       O  0.66940343  0.59016804  0.60402513    -0.82180
O1285       O  0.48643407  0.68170111  0.60420116    -0.84930
C1286       C  0.41257660  0.67141583  0.70862726     0.95840
C1287       C  0.68752670  0.56239268  0.69064824     1.03280
O1288       O  0.40917490  0.63172716  0.63282663    -1.13910
O1289       O  0.43683610  0.60654144  0.57324512    -0.76340
O1290       O  0.44167162  0.58518130  0.62942983    -0.79830
O1291       O  0.38937147  0.66876955  0.68403452    -0.80520
C1292       C  0.44059400  0.58388077  0.59357783     0.94740
O1293       O  0.48462533  0.66008976  0.66143885    -0.78470
O1294       O  0.37774931  0.62176560  0.55922472    -0.83670
C1295       C  0.39805538  0.36438862  0.59208923     0.97360
C1296       C  0.67848199  0.59679560  0.56994427     1.03280
O1297       O  0.36899473  0.33775340  0.60641267    -0.79310
C1298       C  0.50188988  0.34845825  0.63505236     1.01580
Fe1299     Fe  0.43334150  0.51303074  0.49811279     1.65780
Fe1300     Fe  0.43131884  0.47666159  0.58365290     1.73250
Fe1301     Fe  0.36211062  0.42932111  0.52351803     1.54410
O1302       O  0.67726057  0.45453221  0.48451436    -0.83050
O1303       O  0.42821182  0.42692581  0.57626493    -0.81350
O1304       O  0.38652812  0.51386467  0.48381626    -0.85550
O1305       O  0.42599309  0.47287352  0.45742112    -0.80410
O1306       O  0.66940610  0.44227934  0.56390703    -0.82180
O1307       O  0.48644010  0.50110604  0.56373404    -0.84930
C1308       C  0.41258967  0.43754794  0.45930740     0.95840
C1309       C  0.68753776  0.48818514  0.47728390     1.03280
O1310       O  0.40918086  0.47382708  0.53510960    -1.13910
O1311       O  0.43684130  0.52666939  0.59469599    -0.76340
O1312       O  0.44167431  0.55286690  0.53851289    -0.79830
O1313       O  0.38938303  0.41698709  0.48389798    -0.80520
C1314       C  0.44059628  0.55308778  0.57436484     0.94740
O1315       O  0.48463287  0.52091916  0.50650126    -0.78470
O1316       O  0.37774989  0.45235874  0.60870971    -0.83670
C1317       C  0.39805673  0.39670858  0.57584239     0.97360
C1318       C  0.67848232  0.44472851  0.59798874     1.03280
O1319       O  0.36899755  0.39428572  0.56151764    -0.79310
C1320       C  0.50189699  0.51647685  0.53288449     1.01580
Fe1321     Fe  0.37646201  0.84636266  0.00315303     1.65780
Fe1322     Fe  0.34211537  0.80999474  0.91761240     1.73250
Fe1323     Fe  0.36398389  0.76265207  0.97774668     1.54410
O1324       O  0.40738156  0.78786378  0.01674722    -0.83050
O1325       O  0.62882016  0.76025947  0.92499916    -0.81350
O1326       O  0.42410855  0.84719572  0.01745170    -0.85550
O1327       O  0.34365328  0.80620572  0.04384481    -0.80410
O1328       O  0.40297721  0.77560898  0.93735581    -0.82180
O1329       O  0.64477274  0.83443989  0.93753155    -0.84930
C1330       C  0.32173307  0.77087995  0.04195955     0.95840
C1331       C  0.43075492  0.82151645  0.02398128     1.03280
O1332       O  0.36141892  0.80715882  0.96615582    -1.13910
O1333       O  0.38660050  0.86000247  0.90656961    -0.76340
O1334       O  0.40796551  0.88619872  0.96275275    -0.79830
O1335       O  0.32438010  0.75031892  0.01736946    -0.80520
C1336       C  0.40926402  0.88642006  0.92690037     0.94740
O1337       O  0.33305997  0.85425258  0.99476400    -0.78470
O1338       O  0.37137969  0.78569081  0.89255447    -0.83670
C1339       C  0.62875682  0.73004094  0.92542330     0.97360
C1340       C  0.39635024  0.77805995  0.90327457     1.03280
O1341       O  0.65539240  0.72761664  0.93974891    -0.79310
C1342       C  0.64468678  0.84981041  0.96838120     1.01580
Fe1343     Fe  0.48012259  0.95001932  0.83143834     1.65780
Fe1344     Fe  0.51648365  0.98436108  0.91698240     1.73250
Fe1345     Fe  0.56383044  0.96249574  0.85685108     1.54420
O1346       O  0.53862190  0.91909963  0.81784941    -0.83050
O1347       O  0.56621898  0.69765748  0.90960036    -0.81350
O1348       O  0.47929050  0.90237264  0.81714112    -0.85550
O1349       O  0.52028320  0.98282978  0.79074924    -0.80410
O1350       O  0.55087039  0.92350089  0.89724095    -0.82180
O1351       O  0.49203855  0.01503598  0.89706404    -0.84930
C1352       C  0.55560885  0.00474923  0.79263669     0.95840
C1353       C  0.50496994  0.89572603  0.81061478     1.03280
O1354       O  0.51932333  0.96506054  0.86843854    -1.13910
O1355       O  0.46647633  0.93987470  0.92801978    -0.76340
O1356       O  0.44028205  0.91851378  0.87183515    -0.79830
O1357       O  0.57616728  0.00210095  0.81722875    -0.80520
C1358       C  0.44005895  0.91721350  0.90768754     0.94740
O1359       O  0.47223345  0.99342237  0.83982783    -0.78470
O1360       O  0.54078674  0.95509797  0.94204129    -0.83670
C1361       C  0.59643756  0.69772120  0.90917694     0.97360
C1362       C  0.54841894  0.93012839  0.93132183     1.03280
O1363       O  0.59886284  0.67108613  0.89485096    -0.79310
C1364       C  0.47667169  0.68179185  0.86621347     1.01580
Fe1365     Fe  0.48013830  0.89316526  0.33648913     1.65780
Fe1366     Fe  0.51650070  0.89518696  0.25094731     1.73250
Fe1367     Fe  0.56384579  0.96439551  0.31108153     1.54410
O1368       O  0.53863854  0.64924566  0.35008851    -0.83050
O1369       O  0.56623526  0.89829230  0.25833419    -0.81350
O1370       O  0.47930588  0.93998000  0.35078265    -0.85550
O1371       O  0.52029944  0.90051526  0.37717899    -0.80410
O1372       O  0.55088386  0.65709923  0.27069542    -0.82180
O1373       O  0.49205573  0.84006573  0.27086423    -0.84930
C1374       C  0.55562483  0.91391775  0.37529071     0.95840
C1375       C  0.50498580  0.63897018  0.35731515     1.03280
O1376       O  0.51933903  0.91732520  0.29949106    -1.13910
O1377       O  0.46649338  0.88966648  0.23990598    -0.76340
O1378       O  0.44029814  0.88483056  0.29609058    -0.79830
O1379       O  0.57618383  0.93712357  0.35069873    -0.80520
C1380       C  0.44007520  0.88590941  0.26023828     0.94740
O1381       O  0.47225101  0.84187387  0.32810084    -0.78470
O1382       O  0.54080354  0.94875517  0.22589221    -0.83670
C1383       C  0.59645271  0.92844719  0.25875632     0.97370
C1384       C  0.54843313  0.64802233  0.23661384     1.03280
O1385       O  0.59887688  0.95750782  0.27307897    -0.79310
C1386       C  0.47668949  0.82460939  0.30171517     1.01580
Fe1387     Fe  0.37647078  0.89316541  0.16477613     1.65780
Fe1388     Fe  0.34213172  0.89518700  0.25031931     1.73250
Fe1389     Fe  0.36399248  0.96439660  0.19018546     1.54420
O1390       O  0.40738476  0.64924852  0.15118044    -0.83050
O1391       O  0.62883606  0.89829287  0.24293459    -0.81350
O1392       O  0.42411707  0.93998050  0.15048216    -0.85550
O1393       O  0.34365830  0.90051524  0.12408686    -0.80410
O1394       O  0.40299017  0.65709955  0.23057228    -0.82180
O1395       O  0.64478905  0.84006625  0.23040206    -0.84930
C1396       C  0.32173546  0.91391853  0.12597523     0.95840
C1397       C  0.43076184  0.63897228  0.14395318     1.03280
O1398       O  0.36143007  0.91732565  0.20177516    -1.13910
O1399       O  0.38661827  0.88966545  0.26135874    -0.76340
O1400       O  0.40797758  0.88483056  0.20517370    -0.79830
O1401       O  0.32438334  0.93712569  0.15056678    -0.80520
C1402       C  0.40927967  0.88590914  0.24102600     0.94740
O1403       O  0.33306759  0.84187384  0.17316514    -0.78470
O1404       O  0.37139639  0.94875472  0.27537532    -0.83670
C1405       C  0.62877169  0.92844739  0.24251125     0.97370
C1406       C  0.39636589  0.64802192  0.26465383     1.03280
O1407       O  0.65540643  0.95750790  0.22818759    -0.79310
C1408       C  0.64469801  0.82460982  0.19955073     1.01580
Fe1409     Fe  0.53773344  0.73190219  0.16982871     1.65780
Fe1410     Fe  0.53975233  0.69755944  0.08428536     1.73250
Fe1411     Fe  0.60896363  0.71942345  0.14441551     1.54420
O1412       O  0.62715078  0.76281860  0.18341812    -0.83050
O1413       O  0.54285730  0.98426280  0.09167017    -0.81350
O1414       O  0.58454851  0.77954950  0.18412315    -0.85550
O1415       O  0.54508562  0.69909283  0.21051791    -0.80410
O1416       O  0.30166416  0.75841876  0.10402631    -0.82180
O1417       O  0.48463312  0.66688619  0.10420339    -0.84930
C1418       C  0.55849029  0.67717140  0.20862949     0.95840
C1419       C  0.61687386  0.78619450  0.19065021     1.03280
O1420       O  0.56189242  0.71686015  0.13282858    -1.13910
O1421       O  0.53423145  0.74204592  0.07324698    -0.76340
O1422       O  0.52939629  0.76340652  0.12943155    -0.79830
O1423       O  0.58169578  0.67981798  0.18403696    -0.80520
C1424       C  0.53047391  0.76470690  0.09357953     0.94740
O1425       O  0.48644164  0.68849799  0.16144071    -0.78470
O1426       O  0.59331796  0.72682133  0.05922626    -0.83670
C1427       C  0.57301164  0.98419847  0.09209110     0.97370
C1428       C  0.62591881  0.75179114  0.06994547     1.03280
O1429       O  0.60207224  0.67750010  0.10641485    -0.79310
C1430       C  0.46917715  0.66679595  0.13505443     1.01580
Fe1431     Fe  0.53772666  0.83555680  0.99811381     1.65780
Fe1432     Fe  0.53974834  0.87192578  0.08365382     1.73250
Fe1433     Fe  0.60895717  0.91926671  0.02351919     1.54410
O1434       O  0.62714150  0.89405564  0.98451639    -0.83050
O1435       O  0.54285526  0.92166153  0.07626590    -0.81350
O1436       O  0.58454010  0.83472337  0.98381659    -0.85550
O1437       O  0.54507441  0.87571390  0.95742202    -0.80410
O1438       O  0.30166146  0.90630891  0.06390894    -0.82180
O1439       O  0.48462720  0.84748118  0.06373445    -0.84930
C1440       C  0.55847830  0.91103960  0.95930768     0.95840
C1441       C  0.61686398  0.86040281  0.97728486     1.03280
O1442       O  0.56188689  0.87476056  0.03511062    -1.13910
O1443       O  0.53422593  0.82191801  0.09469714    -0.76340
O1444       O  0.52939458  0.79572095  0.03851418    -0.79830
O1445       O  0.58168512  0.93160053  0.98389811    -0.80520
C1446       C  0.53047181  0.79549987  0.07436617     0.94740
O1447       O  0.48643490  0.82766717  0.00650233    -0.78470
O1448       O  0.59331704  0.89622871  0.10871124    -0.83670
C1449       C  0.57301033  0.95187879  0.07584356     0.97360
C1450       C  0.62591815  0.90385931  0.09799058     1.03280
O1451       O  0.60206950  0.95430196  0.06151835    -0.79310
C1452       C  0.46917048  0.83210962  0.03288513     1.01580
Fe1453     Fe  0.49092804  0.78875406  0.83648729     1.65780
Fe1454     Fe  0.45456600  0.78673324  0.75094546     1.73250
Fe1455     Fe  0.40722049  0.71752421  0.81107956     1.54410
O1456       O  0.43242761  0.03267335  0.85008611    -0.83050
O1457       O  0.40483140  0.78362787  0.75833214    -0.81350
O1458       O  0.49176016  0.74193922  0.85078110    -0.85550
O1459       O  0.45076684  0.78140432  0.87717718    -0.80410
O1460       O  0.42018242  0.02482082  0.77069317    -0.82180
O1461       O  0.47901100  0.84185432  0.77086271    -0.84930
C1462       C  0.41544140  0.76800160  0.87528927     0.95840
C1463       C  0.46608028  0.70961560  0.85731328     1.03280
O1464       O  0.45172736  0.76459455  0.79948918    -1.13910
O1465       O  0.50457338  0.79225381  0.73990411    -0.76340
O1466       O  0.53076815  0.79708850  0.79608869    -0.79830
O1467       O  0.39488237  0.74479581  0.85069730    -0.80520
C1468       C  0.53099134  0.79601033  0.76023634     0.94740
O1469       O  0.49881608  0.84004567  0.82809897    -0.78470
O1470       O  0.43026327  0.73316526  0.72589010    -0.83670
C1471       C  0.37461391  0.75347300  0.75875422     0.97360
C1472       C  0.42263353  0.70056470  0.73661165     1.03280
O1473       O  0.37218957  0.72441237  0.77307714    -0.79310
C1474       C  0.49437767  0.85731044  0.80171355     1.01460
Fe1475     Fe  0.59459613  0.78875528  0.66477398     1.65780
Fe1476     Fe  0.62893500  0.78673309  0.75031705     1.73250
Fe1477     Fe  0.60707428  0.71752379  0.69018320     1.54420
O1478       O  0.56368210  0.03267216  0.65117828    -0.83050
O1479       O  0.34223072  0.78362738  0.74293207    -0.81350
O1480       O  0.54694992  0.74194031  0.65047989    -0.85550
O1481       O  0.62740862  0.78140564  0.62408466    -0.80410
O1482       O  0.56807662  0.02482046  0.73057022    -0.82180
O1483       O  0.65961105  0.84185399  0.73039990    -0.84930
C1484       C  0.64933142  0.76800234  0.62597309     0.95840
C1485       C  0.54030513  0.70961519  0.64395098     1.03280
O1486       O  0.60963666  0.76459470  0.70177293    -1.13910
O1487       O  0.58444834  0.79225442  0.76135660    -0.76340
O1488       O  0.56308924  0.79708988  0.70517166    -0.79830
O1489       O  0.64668337  0.74479496  0.65056451    -0.80520
C1490       C  0.56178698  0.79601086  0.74102397     0.94740
O1491       O  0.63799942  0.84004683  0.67316300    -0.78470
O1492       O  0.59967043  0.73316523  0.77537314    -0.83670
C1493       C  0.34229506  0.75347286  0.74250888     0.97370
C1494       C  0.57470099  0.70056463  0.76465179     1.03280
O1495       O  0.64899370  0.72441239  0.72818520    -0.79310
C1496       C  0.65970232  0.85731065  0.69954861     1.01580
Fe1497     Fe  0.59460568  0.83555721  0.50315303     1.65780
Fe1498     Fe  0.62895155  0.87192514  0.41761225     1.73250
Fe1499     Fe  0.60708313  0.91926740  0.47774681     1.54420
O1500       O  0.56368646  0.89405575  0.51674840    -0.83050
O1501       O  0.34224665  0.92166050  0.42499900    -0.81350
O1502       O  0.54695859  0.83472359  0.51745084    -0.85550
O1503       O  0.62741373  0.87571438  0.54384467    -0.80410
O1504       O  0.56808907  0.90630980  0.43735689    -0.82180
O1505       O  0.65962777  0.84748019  0.43753086    -0.84930
C1506       C  0.64933436  0.91104003  0.54195875     0.95840
C1507       C  0.54031253  0.86040296  0.52398119     1.03280
O1508       O  0.60964829  0.87476087  0.46615579    -1.13910
O1509       O  0.58446652  0.82191733  0.40656976    -0.76340
O1510       O  0.56310278  0.79572074  0.46275308    -0.79830
O1511       O  0.64668758  0.93160096  0.51736842    -0.80520
C1512       C  0.56180366  0.79549947  0.42690078     0.94740
O1513       O  0.63800863  0.82766864  0.49476408    -0.78470
O1514       O  0.59968681  0.89622887  0.39255506    -0.83670
C1515       C  0.34230994  0.95187900  0.42542345     0.97370
C1516       C  0.57471602  0.90385921  0.40327558     1.03280
O1517       O  0.64900728  0.95430294  0.43974849    -0.79310
C1518       C  0.65971466  0.83211054  0.46838079     1.01580
Fe1519     Fe  0.49094453  0.73190028  0.33143956     1.65780
Fe1520     Fe  0.45458358  0.69755903  0.41698376     1.73250
Fe1521     Fe  0.40723708  0.71942433  0.35685217     1.54410
O1522       O  0.43244550  0.76281963  0.31784954    -0.83050
O1523       O  0.40484812  0.98426277  0.40960183    -0.81350
O1524       O  0.49177710  0.77954748  0.31714312    -0.85550
O1525       O  0.45078366  0.69909039  0.29075058    -0.80410
O1526       O  0.42019792  0.75841984  0.39724111    -0.82180
O1527       O  0.47902843  0.66688390  0.39706581    -0.84930
C1528       C  0.41545812  0.67717056  0.29263854     0.95840
C1529       C  0.46609756  0.78619378  0.31061603     1.03280
O1530       O  0.45174400  0.71685935  0.36843980    -1.13910
O1531       O  0.50459104  0.74204526  0.42802089    -0.76340
O1532       O  0.53078544  0.76340524  0.37183607    -0.79830
O1533       O  0.39489978  0.67981853  0.31723086    -0.80520
C1534       C  0.53100859  0.76470594  0.40768839     0.94740
O1535       O  0.49883256  0.68849650  0.33982898    -0.78470
O1536       O  0.43028078  0.72682257  0.44204196    -0.83670
C1537       C  0.37462956  0.98419910  0.40917806     0.97370
C1538       C  0.42264911  0.75179240  0.43132204     1.03280
O1539       O  0.37220462  0.67750122  0.39485258    -0.79310
C1540       C  0.49439459  0.66679405  0.36621499     1.01580
Fe1541     Fe  0.43333375  0.95001850  0.66982678     1.65780
Fe1542     Fe  0.43131494  0.98436111  0.58428335     1.73250
Fe1543     Fe  0.69543701  0.96249706  0.64441369     1.54420
O1544       O  0.67725012  0.91910231  0.68341688    -0.83050
O1545       O  0.42820973  0.69765765  0.59166802    -0.81350
O1546       O  0.38651860  0.90237083  0.68412066    -0.85550
O1547       O  0.42598095  0.98282746  0.71051594    -0.80410
O1548       O  0.66940343  0.92350138  0.60402513    -0.82180
O1549       O  0.48643407  0.01503444  0.60420116    -0.84930
C1550       C  0.41257660  0.00474916  0.70862726     0.95840
C1551       C  0.68752670  0.89572601  0.69064824     1.03280
O1552       O  0.40917490  0.96506050  0.63282663    -1.13910
O1553       O  0.43683610  0.93987477  0.57324512    -0.76340
O1554       O  0.44167162  0.91851463  0.62942983    -0.79830
O1555       O  0.38937147  0.00210288  0.68403452    -0.80520
C1556       C  0.44059400  0.91721410  0.59357783     0.94740
O1557       O  0.48462533  0.99342309  0.66143885    -0.78470
O1558       O  0.37774931  0.95509894  0.55922472    -0.83670
C1559       C  0.39805538  0.69772196  0.59208923     0.97360
C1560       C  0.67848199  0.93012893  0.56994427     1.03280
O1561       O  0.36899473  0.67108673  0.60641267    -0.79310
C1562       C  0.50188988  0.68179158  0.63505237     1.01580
Fe1563     Fe  0.43334150  0.84636407  0.49811279     1.65780
Fe1564     Fe  0.43131884  0.80999493  0.58365290     1.73250
Fe1565     Fe  0.36211062  0.76265445  0.52351803     1.54410
O1566       O  0.67726057  0.78786554  0.48451436    -0.83050
O1567       O  0.42821182  0.76025914  0.57626493    -0.81350
O1568       O  0.38652812  0.84719800  0.48381626    -0.85550
O1569       O  0.42599309  0.80620686  0.45742112    -0.80410
O1570       O  0.66940610  0.77561268  0.56390703    -0.82180
O1571       O  0.48644010  0.83443938  0.56373404    -0.84930
C1572       C  0.41258967  0.77088127  0.45930740     0.95840
C1573       C  0.68753776  0.82151848  0.47728390     1.03280
O1574       O  0.40918086  0.80716041  0.53510960    -1.13910
O1575       O  0.43684130  0.86000273  0.59469599    -0.76340
O1576       O  0.44167431  0.88620023  0.53851289    -0.79830
O1577       O  0.38938303  0.75032042  0.48389798    -0.80520
C1578       C  0.44059628  0.88642112  0.57436484     0.94740
O1579       O  0.48463287  0.85425249  0.50650126    -0.78470
O1580       O  0.37774989  0.78569207  0.60870971    -0.83670
C1581       C  0.39805673  0.73004192  0.57584239     0.97360
C1582       C  0.67848232  0.77806184  0.59798874     1.03280
O1583       O  0.36899755  0.72761905  0.56151764    -0.79310
C1584       C  0.50189699  0.84981018  0.53288449     1.01580
Fe1585     Fe  0.70979534  0.17969599  0.00315303     1.65780
Fe1586     Fe  0.67544870  0.14332808  0.91761240     1.73250
Fe1587     Fe  0.69731722  0.09598541  0.97774668     1.54410
O1588       O  0.74071489  0.12119712  0.01674722    -0.83050
O1589       O  0.96215350  0.09359280  0.92499916    -0.81350
O1590       O  0.75744188  0.18052906  0.01745170    -0.85550
O1591       O  0.67698662  0.13953906  0.04384481    -0.80410
O1592       O  0.73631054  0.10894231  0.93735581    -0.82180
O1593       O  0.97810608  0.16777322  0.93753155    -0.84930
C1594       C  0.65506641  0.10421329  0.04195955     0.95840
C1595       C  0.76408825  0.15484979  0.02398128     1.03280
O1596       O  0.69475226  0.14049215  0.96615582    -1.13910
O1597       O  0.71993383  0.19333580  0.90656961    -0.76340
O1598       O  0.74129884  0.21953205  0.96275275    -0.79830
O1599       O  0.65771343  0.08365225  0.01736946    -0.80520
C1600       C  0.74259736  0.21975340  0.92690037     0.94740
O1601       O  0.66639331  0.18758592  0.99476400    -0.78470
O1602       O  0.70471303  0.11902415  0.89255447    -0.83670
C1603       C  0.96209015  0.06337428  0.92542330     0.97360
C1604       C  0.72968357  0.11139329  0.90327457     1.03280
O1605       O  0.98872574  0.06094997  0.93974891    -0.79310
C1606       C  0.97802012  0.18314374  0.96838120     1.01580
Fe1607     Fe  0.81345592  0.28335265  0.83143834     1.65780
Fe1608     Fe  0.84981698  0.31769441  0.91698240     1.73250
Fe1609     Fe  0.89716377  0.29582908  0.85685108     1.54420
O1610       O  0.87195523  0.25243296  0.81784941    -0.83050
O1611       O  0.89955231  0.03099081  0.90960036    -0.81350
O1612       O  0.81262383  0.23570597  0.81714112    -0.85550
O1613       O  0.85361654  0.31616312  0.79074924    -0.80410
O1614       O  0.88420372  0.25683422  0.89724095    -0.82180
O1615       O  0.82537189  0.34836932  0.89706404    -0.84930
C1616       C  0.88894218  0.33808256  0.79263669     0.95840
C1617       C  0.83830328  0.22905937  0.81061478     1.03280
O1618       O  0.85265666  0.29839387  0.86843855    -1.13910
O1619       O  0.79980966  0.27320803  0.92801978    -0.76340
O1620       O  0.77361538  0.25184711  0.87183515    -0.79830
O1621       O  0.90950062  0.33543429  0.81722875    -0.80520
C1622       C  0.77339229  0.25054683  0.90768754     0.94740
O1623       O  0.80556679  0.32675570  0.83982783    -0.78470
O1624       O  0.87412008  0.28843131  0.94204129    -0.83670
C1625       C  0.92977089  0.03105453  0.90917694     0.97360
C1626       C  0.88175227  0.26346173  0.93132183     1.03280
O1627       O  0.93219618  0.00441946  0.89485096    -0.79310
C1628       C  0.81000503  0.01512519  0.86621347     1.01580
Fe1629     Fe  0.81347164  0.22649859  0.33648913     1.65780
Fe1630     Fe  0.84983403  0.22852029  0.25094731     1.73250
Fe1631     Fe  0.89717912  0.29772884  0.31108153     1.54410
O1632       O  0.87197187  0.98257899  0.35008851    -0.83050
O1633       O  0.89956859  0.23162564  0.25833419    -0.81350
O1634       O  0.81263922  0.27331333  0.35078265    -0.85550
O1635       O  0.85363278  0.23384859  0.37717899    -0.80410
O1636       O  0.88421719  0.99043256  0.27069542    -0.82180
O1637       O  0.82538907  0.17339906  0.27086423    -0.84930
C1638       C  0.88895816  0.24725108  0.37529071     0.95840
C1639       C  0.83831914  0.97230351  0.35731515     1.03280
O1640       O  0.85267236  0.25065854  0.29949106    -1.13910
O1641       O  0.79982671  0.22299982  0.23990598    -0.76340
O1642       O  0.77363147  0.21816390  0.29609058    -0.79830
O1643       O  0.90951716  0.27045690  0.35069873    -0.80520
C1644       C  0.77340853  0.21924275  0.26023828     0.94740
O1645       O  0.80558435  0.17520720  0.32810084    -0.78470
O1646       O  0.87413687  0.28208851  0.22589221    -0.83670
C1647       C  0.92978605  0.26178052  0.25875632     0.97370
C1648       C  0.88176647  0.98135566  0.23661384     1.03280
O1649       O  0.93221021  0.29084115  0.27307897    -0.79310
C1650       C  0.81002282  0.15794272  0.30171517     1.01580
Fe1651     Fe  0.70980412  0.22649875  0.16477613     1.65780
Fe1652     Fe  0.67546506  0.22852034  0.25031931     1.73250
Fe1653     Fe  0.69732581  0.29772993  0.19018546     1.54420
O1654       O  0.74071809  0.98258185  0.15118044    -0.83050
O1655       O  0.96216939  0.23162620  0.24293459    -0.81350
O1656       O  0.75745040  0.27331383  0.15048216    -0.85550
O1657       O  0.67699163  0.23384858  0.12408686    -0.80410
O1658       O  0.73632350  0.99043288  0.23057228    -0.82180
O1659       O  0.97812238  0.17339958  0.23040206    -0.84930
C1660       C  0.65506879  0.24725186  0.12597523     0.95840
C1661       C  0.76409517  0.97230561  0.14395318     1.03280
O1662       O  0.69476340  0.25065898  0.20177516    -1.13910
O1663       O  0.71995160  0.22299878  0.26135874    -0.76340
O1664       O  0.74131091  0.21816390  0.20517370    -0.79830
O1665       O  0.65771667  0.27045902  0.15056678    -0.80520
C1666       C  0.74261301  0.21924248  0.24102600     0.94740
O1667       O  0.66640093  0.17520718  0.17316514    -0.78470
O1668       O  0.70472973  0.28208805  0.27537532    -0.83670
C1669       C  0.96210502  0.26178072  0.24251125     0.97370
C1670       C  0.72969922  0.98135526  0.26465383     1.03280
O1671       O  0.98873976  0.29084123  0.22818759    -0.79310
C1672       C  0.97803134  0.15794315  0.19955073     1.01580
Fe1673     Fe  0.87106677  0.06523553  0.16982871     1.65780
Fe1674     Fe  0.87308567  0.03089277  0.08428536     1.73250
Fe1675     Fe  0.94229696  0.05275678  0.14441551     1.54420
O1676       O  0.96048411  0.09615193  0.18341812    -0.83050
O1677       O  0.87619064  0.31759613  0.09167017    -0.81350
O1678       O  0.91788184  0.11288284  0.18412315    -0.85550
O1679       O  0.87841895  0.03242616  0.21051791    -0.80410
O1680       O  0.63499749  0.09175210  0.10402631    -0.82180
O1681       O  0.81796646  0.00021952  0.10420339    -0.84930
C1682       C  0.89182362  0.01050473  0.20862949     0.95840
C1683       C  0.95020720  0.11952783  0.19065021     1.03280
O1684       O  0.89522575  0.05019348  0.13282858    -1.13910
O1685       O  0.86756478  0.07537925  0.07324698    -0.76340
O1686       O  0.86272963  0.09673985  0.12943155    -0.79830
O1687       O  0.91502911  0.01315131  0.18403696    -0.80520
C1688       C  0.86380725  0.09804023  0.09357953     0.94740
O1689       O  0.81977497  0.02183133  0.16144071    -0.78470
O1690       O  0.92665130  0.06015467  0.05922626    -0.83670
C1691       C  0.90634497  0.31753180  0.09209110     0.97370
C1692       C  0.95925215  0.08512448  0.06994547     1.03280
O1693       O  0.93540557  0.01083343  0.10641485    -0.79310
C1694       C  0.80251048  0.00012929  0.13505443     1.01580
Fe1695     Fe  0.87106000  0.16889014  0.99811381     1.65780
Fe1696     Fe  0.87308167  0.20525911  0.08365382     1.73250
Fe1697     Fe  0.94229050  0.25260004  0.02351919     1.54410
O1698       O  0.96047484  0.22738897  0.98451639    -0.83050
O1699       O  0.87618860  0.25499486  0.07626590    -0.81350
O1700       O  0.91787343  0.16805670  0.98381659    -0.85550
O1701       O  0.87840774  0.20904723  0.95742202    -0.80410
O1702       O  0.63499479  0.23964225  0.06390894    -0.82180
O1703       O  0.81796053  0.18081452  0.06373445    -0.84930
C1704       C  0.89181163  0.24437293  0.95930768     0.95840
C1705       C  0.95019731  0.19373614  0.97728486     1.03280
O1706       O  0.89522022  0.20809390  0.03511062    -1.13910
O1707       O  0.86755926  0.15525134  0.09469714    -0.76340
O1708       O  0.86272792  0.12905428  0.03851418    -0.79830
O1709       O  0.91501845  0.26493386  0.98389811    -0.80520
C1710       C  0.86380514  0.12883321  0.07436617     0.94740
O1711       O  0.81976823  0.16100051  0.00650233    -0.78470
O1712       O  0.92665037  0.22956204  0.10871125    -0.83670
C1713       C  0.90634366  0.28521212  0.07584356     0.97360
C1714       C  0.95925148  0.23719264  0.09799058     1.03280
O1715       O  0.93540283  0.28763530  0.06151835    -0.79310
C1716       C  0.80250381  0.16544295  0.03288513     1.01580
Fe1717     Fe  0.82426137  0.12208739  0.83648729     1.65780
Fe1718     Fe  0.78789934  0.12006658  0.75094546     1.73250
Fe1719     Fe  0.74055382  0.05085754  0.81107956     1.54410
O1720       O  0.76576094  0.36600669  0.85008611    -0.83050
O1721       O  0.73816473  0.11696120  0.75833214    -0.81350
O1722       O  0.82509349  0.07527255  0.85078110    -0.85550
O1723       O  0.78410018  0.11473765  0.87717718    -0.80410
O1724       O  0.75351576  0.35815416  0.77069317    -0.82180
O1725       O  0.81234434  0.17518766  0.77086271    -0.84930
C1726       C  0.74877473  0.10133494  0.87528927     0.95840
C1727       C  0.79941361  0.04294894  0.85731327     1.03280
O1728       O  0.78506069  0.09792788  0.79948918    -1.13910
O1729       O  0.83790671  0.12558714  0.73990411    -0.76340
O1730       O  0.86410148  0.13042183  0.79608869    -0.79830
O1731       O  0.72821571  0.07812914  0.85069730    -0.80520
C1732       C  0.86432467  0.12934366  0.76023634     0.94740
O1733       O  0.83214941  0.17337900  0.82809897    -0.78470
O1734       O  0.76359660  0.06649860  0.72589010    -0.83670
C1735       C  0.70794725  0.08680633  0.75875422     0.97360
C1736       C  0.75596686  0.03389803  0.73661165     1.03280
O1737       O  0.70552290  0.05774570  0.77307714    -0.79310
C1738       C  0.82771100  0.19064377  0.80171355     1.01460
Fe1739     Fe  0.92792946  0.12208861  0.66477398     1.65780
Fe1740     Fe  0.96226833  0.12006643  0.75031705     1.73250
Fe1741     Fe  0.94040761  0.05085712  0.69018320     1.54420
O1742       O  0.89701543  0.36600549  0.65117828    -0.83050
O1743       O  0.67556405  0.11696072  0.74293207    -0.81350
O1744       O  0.88028325  0.07527364  0.65047989    -0.85550
O1745       O  0.96074195  0.11473898  0.62408466    -0.80410
O1746       O  0.90140995  0.35815380  0.73057022    -0.82180
O1747       O  0.99294438  0.17518732  0.73039990    -0.84930
C1748       C  0.98266475  0.10133567  0.62597309     0.95840
C1749       C  0.87363846  0.04294852  0.64395098     1.03280
O1750       O  0.94296999  0.09792803  0.70177293    -1.13910
O1751       O  0.91778167  0.12558775  0.76135660    -0.76340
O1752       O  0.89642257  0.13042321  0.70517166    -0.79830
O1753       O  0.98001670  0.07812829  0.65056451    -0.80520
C1754       C  0.89512031  0.12934420  0.74102397     0.94740
O1755       O  0.97133275  0.17338017  0.67316300    -0.78470
O1756       O  0.93300376  0.06649856  0.77537314    -0.83670
C1757       C  0.67562840  0.08680619  0.74250888     0.97370
C1758       C  0.90803433  0.03389797  0.76465179     1.03280
O1759       O  0.98232703  0.05774572  0.72818520    -0.79310
C1760       C  0.99303565  0.19064398  0.69954861     1.01580
Fe1761     Fe  0.92793901  0.16889054  0.50315303     1.65780
Fe1762     Fe  0.96228488  0.20525847  0.41761225     1.73250
Fe1763     Fe  0.94041647  0.25260074  0.47774681     1.54420
O1764       O  0.89701979  0.22738909  0.51674840    -0.83050
O1765       O  0.67557999  0.25499384  0.42499900    -0.81350
O1766       O  0.88029192  0.16805692  0.51745084    -0.85550
O1767       O  0.96074706  0.20904771  0.54384467    -0.80410
O1768       O  0.90142240  0.23964313  0.43735689    -0.82180
O1769       O  0.99296110  0.18081352  0.43753086    -0.84930
C1770       C  0.98266769  0.24437336  0.54195875     0.95840
C1771       C  0.87364586  0.19373629  0.52398120     1.03280
O1772       O  0.94298163  0.20809420  0.46615579    -1.13910
O1773       O  0.91779985  0.15525067  0.40656976    -0.76340
O1774       O  0.89643611  0.12905407  0.46275308    -0.79830
O1775       O  0.98002091  0.26493429  0.51736842    -0.80520
C1776       C  0.89513699  0.12883280  0.42690078     0.94740
O1777       O  0.97134197  0.16100198  0.49476408    -0.78470
O1778       O  0.93302014  0.22956220  0.39255506    -0.83670
C1779       C  0.67564328  0.28521233  0.42542345     0.97370
C1780       C  0.90804936  0.23719255  0.40327558     1.03280
O1781       O  0.98234061  0.28763627  0.43974849    -0.79310
C1782       C  0.99304799  0.16544388  0.46838079     1.01580
Fe1783     Fe  0.82427787  0.06523361  0.33143956     1.65780
Fe1784     Fe  0.78791692  0.03089237  0.41698376     1.73250
Fe1785     Fe  0.74057041  0.05275766  0.35685217     1.54410
O1786       O  0.76577883  0.09615297  0.31784954    -0.83050
O1787       O  0.73818145  0.31759610  0.40960183    -0.81350
O1788       O  0.82511044  0.11288081  0.31714312    -0.85550
O1789       O  0.78411700  0.03242373  0.29075058    -0.80410
O1790       O  0.75353125  0.09175317  0.39724111    -0.82180
O1791       O  0.81236177  0.00021723  0.39706581    -0.84930
C1792       C  0.74879145  0.01050389  0.29263854     0.95840
C1793       C  0.79943089  0.11952712  0.31061603     1.03280
O1794       O  0.78507733  0.05019268  0.36843980    -1.13910
O1795       O  0.83792437  0.07537860  0.42802089    -0.76340
O1796       O  0.86411878  0.09673858  0.37183607    -0.79830
O1797       O  0.72823311  0.01315186  0.31723086    -0.80520
C1798       C  0.86434192  0.09803927  0.40768839     0.94740
O1799       O  0.83216589  0.02182983  0.33982898    -0.78470
O1800       O  0.76361412  0.06015590  0.44204196    -0.83670
C1801       C  0.70796289  0.31753243  0.40917806     0.97370
C1802       C  0.75598244  0.08512573  0.43132204     1.03280
O1803       O  0.70553795  0.01083456  0.39485258    -0.79310
C1804       C  0.82772792  0.00012739  0.36621499     1.01580
Fe1805     Fe  0.76666708  0.28335184  0.66982678     1.65780
Fe1806     Fe  0.76464827  0.31769444  0.58428335     1.73250
Fe1807     Fe  0.02877034  0.29583040  0.64441369     1.54420
O1808       O  0.01058346  0.25243564  0.68341688    -0.83050
O1809       O  0.76154307  0.03099098  0.59166802    -0.81350
O1810       O  0.71985193  0.23570416  0.68412066    -0.85550
O1811       O  0.75931428  0.31616080  0.71051594    -0.80410
O1812       O  0.00273676  0.25683471  0.60402513    -0.82180
O1813       O  0.81976740  0.34836777  0.60420116    -0.84930
C1814       C  0.74590994  0.33808250  0.70862726     0.95840
C1815       C  0.02086004  0.22905935  0.69064824     1.03280
O1816       O  0.74250824  0.29839383  0.63282663    -1.13910
O1817       O  0.77016944  0.27320811  0.57324512    -0.76340
O1818       O  0.77500496  0.25184797  0.62942983    -0.79830
O1819       O  0.72270481  0.33543621  0.68403452    -0.80520
C1820       C  0.77392734  0.25054744  0.59357783     0.94740
O1821       O  0.81795866  0.32675643  0.66143885    -0.78470
O1822       O  0.71108264  0.28843227  0.55922472    -0.83670
C1823       C  0.73138871  0.03105529  0.59208923     0.97360
C1824       C  0.01181532  0.26346227  0.56994427     1.03280
O1825       O  0.70232806  0.00442006  0.60641266    -0.79310
C1826       C  0.83522322  0.01512492  0.63505236     1.01580
Fe1827     Fe  0.76667483  0.17969741  0.49811279     1.65780
Fe1828     Fe  0.76465218  0.14332826  0.58365290     1.73250
Fe1829     Fe  0.69544395  0.09598778  0.52351803     1.54410
O1830       O  0.01059390  0.12119887  0.48451436    -0.83050
O1831       O  0.76154516  0.09359248  0.57626493    -0.81350
O1832       O  0.71986146  0.18053133  0.48381626    -0.85550
O1833       O  0.75932642  0.13954019  0.45742112    -0.80410
O1834       O  0.00273943  0.10894601  0.56390703    -0.82180
O1835       O  0.81977343  0.16777271  0.56373404    -0.84930
C1836       C  0.74592300  0.10421460  0.45930740     0.95840
C1837       C  0.02087109  0.15485181  0.47728390     1.03280
O1838       O  0.74251419  0.14049375  0.53510960    -1.13910
O1839       O  0.77017464  0.19333606  0.59469599    -0.76340
O1840       O  0.77500764  0.21953356  0.53851289    -0.79830
O1841       O  0.72271637  0.08365375  0.48389798    -0.80520
C1842       C  0.77392962  0.21975445  0.57436484     0.94740
O1843       O  0.81796620  0.18758582  0.50650126    -0.78470
O1844       O  0.71108322  0.11902540  0.60870971    -0.83670
C1845       C  0.73139006  0.06337525  0.57584239     0.97360
C1846       C  0.01181565  0.11139517  0.59798874     1.03280
O1847       O  0.70233088  0.06095238  0.56151764    -0.79310
C1848       C  0.83523032  0.18314352  0.53288449     1.01580
Fe1849     Fe  0.70979534  0.51302933  0.00315303     1.65780
Fe1850     Fe  0.67544870  0.47666141  0.91761240     1.73250
Fe1851     Fe  0.69731722  0.42931874  0.97774668     1.54410
O1852       O  0.74071489  0.45453045  0.01674722    -0.83050
O1853       O  0.96215350  0.42692613  0.92499916    -0.81350
O1854       O  0.75744188  0.51386239  0.01745170    -0.85550
O1855       O  0.67698661  0.47287239  0.04384481    -0.80410
O1856       O  0.73631054  0.44227564  0.93735581    -0.82180
O1857       O  0.97810608  0.50110656  0.93753155    -0.84930
C1858       C  0.65506641  0.43754662  0.04195955     0.95840
C1859       C  0.76408825  0.48818312  0.02398128     1.03280
O1860       O  0.69475226  0.47382549  0.96615582    -1.13910
O1861       O  0.71993383  0.52666913  0.90656961    -0.76340
O1862       O  0.74129884  0.55286539  0.96275275    -0.79830
O1863       O  0.65771343  0.41698558  0.01736946    -0.80520
C1864       C  0.74259736  0.55308673  0.92690037     0.94740
O1865       O  0.66639331  0.52091925  0.99476400    -0.78470
O1866       O  0.70471303  0.45235748  0.89255447    -0.83670
C1867       C  0.96209015  0.39670761  0.92542330     0.97360
C1868       C  0.72968357  0.44472662  0.90327457     1.03280
O1869       O  0.98872574  0.39428330  0.93974891    -0.79310
C1870       C  0.97802012  0.51647707  0.96838120     1.01580
Fe1871     Fe  0.81345592  0.61668599  0.83143834     1.65780
Fe1872     Fe  0.84981698  0.65102775  0.91698240     1.73250
Fe1873     Fe  0.89716377  0.62916241  0.85685108     1.54420
O1874       O  0.87195523  0.58576629  0.81784941    -0.83050
O1875       O  0.89955231  0.36432414  0.90960036    -0.81350
O1876       O  0.81262383  0.56903930  0.81714112    -0.85550
O1877       O  0.85361654  0.64949645  0.79074924    -0.80410
O1878       O  0.88420372  0.59016755  0.89724095    -0.82180
O1879       O  0.82537189  0.68170265  0.89706404    -0.84930
C1880       C  0.88894218  0.67141589  0.79263669     0.95840
C1881       C  0.83830328  0.56239270  0.81061478     1.03280
O1882       O  0.85265666  0.63172721  0.86843855    -1.13910
O1883       O  0.79980966  0.60654136  0.92801978    -0.76340
O1884       O  0.77361538  0.58518044  0.87183515    -0.79830
O1885       O  0.90950062  0.66876762  0.81722875    -0.80520
C1886       C  0.77339229  0.58388016  0.90768754     0.94740
O1887       O  0.80556679  0.66008903  0.83982783    -0.78470
O1888       O  0.87412008  0.62176464  0.94204129    -0.83670
C1889       C  0.92977090  0.36438787  0.90917694     0.97360
C1890       C  0.88175227  0.59679506  0.93132183     1.03280
O1891       O  0.93219618  0.33775280  0.89485096    -0.79310
C1892       C  0.81000503  0.34845852  0.86621347     1.01580
Fe1893     Fe  0.81347164  0.55983193  0.33648913     1.65780
Fe1894     Fe  0.84983403  0.56185362  0.25094731     1.73250
Fe1895     Fe  0.89717912  0.63106217  0.31108153     1.54410
O1896       O  0.87197187  0.31591233  0.35008851    -0.83050
O1897       O  0.89956859  0.56495897  0.25833419    -0.81350
O1898       O  0.81263922  0.60664666  0.35078265    -0.85550
O1899       O  0.85363278  0.56718192  0.37717899    -0.80410
O1900       O  0.88421719  0.32376590  0.27069542    -0.82180
O1901       O  0.82538907  0.50673239  0.27086423    -0.84930
C1902       C  0.88895816  0.58058442  0.37529071     0.95840
C1903       C  0.83831914  0.30563684  0.35731515     1.03280
O1904       O  0.85267236  0.58399187  0.29949106    -1.13910
O1905       O  0.79982671  0.55633315  0.23990598    -0.76340
O1906       O  0.77363147  0.55149723  0.29609058    -0.79830
O1907       O  0.90951716  0.60379023  0.35069873    -0.80520
C1908       C  0.77340853  0.55257608  0.26023828     0.94740
O1909       O  0.80558435  0.50854054  0.32810084    -0.78470
O1910       O  0.87413687  0.61542184  0.22589221    -0.83670
C1911       C  0.92978605  0.59511386  0.25875632     0.97370
C1912       C  0.88176647  0.31468899  0.23661384     1.03280
O1913       O  0.93221021  0.62417448  0.27307897    -0.79310
C1914       C  0.81002282  0.49127606  0.30171517     1.01580
Fe1915     Fe  0.70980412  0.55983208  0.16477613     1.65780
Fe1916     Fe  0.67546506  0.56185367  0.25031931     1.73250
Fe1917     Fe  0.69732581  0.63106327  0.19018546     1.54420
O1918       O  0.74071809  0.31591518  0.15118044    -0.83050
O1919       O  0.96216939  0.56495954  0.24293459    -0.81350
O1920       O  0.75745040  0.60664716  0.15048216    -0.85550
O1921       O  0.67699163  0.56718191  0.12408686    -0.80410
O1922       O  0.73632350  0.32376622  0.23057228    -0.82180
O1923       O  0.97812238  0.50673292  0.23040206    -0.84930
C1924       C  0.65506879  0.58058520  0.12597523     0.95840
C1925       C  0.76409517  0.30563894  0.14395318     1.03280
O1926       O  0.69476340  0.58399232  0.20177516    -1.13910
O1927       O  0.71995160  0.55633211  0.26135874    -0.76340
O1928       O  0.74131091  0.55149723  0.20517370    -0.79830
O1929       O  0.65771667  0.60379236  0.15056678    -0.80520
C1930       C  0.74261301  0.55257581  0.24102600     0.94740
O1931       O  0.66640093  0.50854051  0.17316514    -0.78470
O1932       O  0.70472973  0.61542139  0.27537532    -0.83670
C1933       C  0.96210502  0.59511406  0.24251125     0.97370
C1934       C  0.72969922  0.31468859  0.26465383     1.03280
O1935       O  0.98873976  0.62417456  0.22818759    -0.79310
C1936       C  0.97803135  0.49127649  0.19955073     1.01580
Fe1937     Fe  0.87106677  0.39856886  0.16982871     1.65780
Fe1938     Fe  0.87308567  0.36422611  0.08428536     1.73250
Fe1939     Fe  0.94229696  0.38609011  0.14441551     1.54420
O1940       O  0.96048411  0.42948527  0.18341812    -0.83050
O1941       O  0.87619064  0.65092946  0.09167017    -0.81350
O1942       O  0.91788184  0.44621617  0.18412315    -0.85550
O1943       O  0.87841895  0.36575949  0.21051791    -0.80410
O1944       O  0.63499749  0.42508543  0.10402631    -0.82180
O1945       O  0.81796646  0.33355286  0.10420339    -0.84930
C1946       C  0.89182362  0.34383807  0.20862949     0.95840
C1947       C  0.95020720  0.45286116  0.19065021     1.03280
O1948       O  0.89522575  0.38352681  0.13282858    -1.13910
O1949       O  0.86756478  0.40871258  0.07324698    -0.76340
O1950       O  0.86272963  0.43007318  0.12943155    -0.79830
O1951       O  0.91502911  0.34648465  0.18403696    -0.80520
C1952       C  0.86380725  0.43137356  0.09357953     0.94740
O1953       O  0.81977497  0.35516466  0.16144071    -0.78470
O1954       O  0.92665130  0.39348800  0.05922626    -0.83670
C1955       C  0.90634497  0.65086514  0.09209110     0.97370
C1956       C  0.95925215  0.41845781  0.06994547     1.03280
O1957       O  0.93540557  0.34416677  0.10641485    -0.79310
C1958       C  0.80251048  0.33346262  0.13505443     1.01580
Fe1959     Fe  0.87106000  0.50222347  0.99811381     1.65780
Fe1960     Fe  0.87308167  0.53859245  0.08365382     1.73250
Fe1961     Fe  0.94229050  0.58593338  0.02351919     1.54410
O1962       O  0.96047484  0.56072230  0.98451639    -0.83050
O1963       O  0.87618860  0.58832819  0.07626590    -0.81350
O1964       O  0.91787343  0.50139004  0.98381659    -0.85550
O1965       O  0.87840774  0.54238056  0.95742202    -0.80410
O1966       O  0.63499479  0.57297558  0.06390894    -0.82180
O1967       O  0.81796053  0.51414785  0.06373445    -0.84930
C1968       C  0.89181163  0.57770627  0.95930768     0.95840
C1969       C  0.95019731  0.52706948  0.97728486     1.03280
O1970       O  0.89522022  0.54142723  0.03511062    -1.13910
O1971       O  0.86755926  0.48858467  0.09469714    -0.76340
O1972       O  0.86272792  0.46238762  0.03851418    -0.79830
O1973       O  0.91501845  0.59826720  0.98389811    -0.80520
C1974       C  0.86380514  0.46216654  0.07436617     0.94740
O1975       O  0.81976823  0.49433384  0.00650233    -0.78470
O1976       O  0.92665037  0.56289538  0.10871124    -0.83670
C1977       C  0.90634366  0.61854545  0.07584356     0.97360
C1978       C  0.95925148  0.57052598  0.09799058     1.03280
O1979       O  0.93540283  0.62096863  0.06151835    -0.79310
C1980       C  0.80250381  0.49877629  0.03288513     1.01580
Fe1981     Fe  0.82426137  0.45542072  0.83648729     1.65780
Fe1982     Fe  0.78789934  0.45339991  0.75094546     1.73250
Fe1983     Fe  0.74055382  0.38419087  0.81107956     1.54410
O1984       O  0.76576094  0.69934002  0.85008611    -0.83050
O1985       O  0.73816473  0.45029454  0.75833214    -0.81350
O1986       O  0.82509349  0.40860588  0.85078110    -0.85550
O1987       O  0.78410018  0.44807098  0.87717718    -0.80410
O1988       O  0.75351576  0.69148749  0.77069317    -0.82180
O1989       O  0.81234434  0.50852099  0.77086271    -0.84930
C1990       C  0.74877473  0.43466827  0.87528927     0.95840
C1991       C  0.79941361  0.37628227  0.85731327     1.03280
O1992       O  0.78506069  0.43126121  0.79948918    -1.13910
O1993       O  0.83790671  0.45892047  0.73990411    -0.76340
O1994       O  0.86410148  0.46375517  0.79608869    -0.79830
O1995       O  0.72821571  0.41146247  0.85069730    -0.80520
C1996       C  0.86432467  0.46267700  0.76023634     0.94740
O1997       O  0.83214941  0.50671234  0.82809897    -0.78470
O1998       O  0.76359660  0.39983193  0.72589010    -0.83670
C1999       C  0.70794725  0.42013967  0.75875422     0.97360
C2000       C  0.75596686  0.36723136  0.73661165     1.03280
O2001       O  0.70552290  0.39107903  0.77307714    -0.79310
C2002       C  0.82771100  0.52397711  0.80171355     1.01460
Fe2003     Fe  0.92792946  0.45542194  0.66477398     1.65780
Fe2004     Fe  0.96226833  0.45339976  0.75031705     1.73250
Fe2005     Fe  0.94040761  0.38419045  0.69018320     1.54420
O2006       O  0.89701543  0.69933882  0.65117828    -0.83050
O2007       O  0.67556405  0.45029405  0.74293207    -0.81350
O2008       O  0.88028325  0.40860697  0.65047989    -0.85550
O2009       O  0.96074195  0.44807231  0.62408466    -0.80410
O2010       O  0.90140995  0.69148713  0.73057022    -0.82180
O2011       O  0.99294438  0.50852065  0.73039990    -0.84930
C2012       C  0.98266475  0.43466900  0.62597309     0.95840
C2013       C  0.87363846  0.37628186  0.64395098     1.03280
O2014       O  0.94296999  0.43126137  0.70177293    -1.13910
O2015       O  0.91778167  0.45892109  0.76135660    -0.76340
O2016       O  0.89642257  0.46375654  0.70517166    -0.79830
O2017       O  0.98001670  0.41146163  0.65056451    -0.80520
C2018       C  0.89512031  0.46267753  0.74102397     0.94740
O2019       O  0.97133275  0.50671350  0.67316300    -0.78470
O2020       O  0.93300376  0.39983189  0.77537314    -0.83670
C2021       C  0.67562840  0.42013952  0.74250888     0.97370
C2022       C  0.90803433  0.36723130  0.76465179     1.03280
O2023       O  0.98232703  0.39107906  0.72818520    -0.79310
C2024       C  0.99303565  0.52397731  0.69954861     1.01580
Fe2025     Fe  0.92793901  0.50222388  0.50315303     1.65780
Fe2026     Fe  0.96228488  0.53859181  0.41761225     1.73250
Fe2027     Fe  0.94041647  0.58593407  0.47774681     1.54420
O2028       O  0.89701979  0.56072242  0.51674840    -0.83050
O2029       O  0.67557999  0.58832717  0.42499900    -0.81350
O2030       O  0.88029192  0.50139026  0.51745084    -0.85550
O2031       O  0.96074706  0.54238105  0.54384467    -0.80410
O2032       O  0.90142240  0.57297647  0.43735689    -0.82180
O2033       O  0.99296110  0.51414686  0.43753086    -0.84930
C2034       C  0.98266769  0.57770669  0.54195875     0.95840
C2035       C  0.87364586  0.52706963  0.52398120     1.03280
O2036       O  0.94298163  0.54142753  0.46615579    -1.13910
O2037       O  0.91779985  0.48858400  0.40656976    -0.76340
O2038       O  0.89643611  0.46238740  0.46275308    -0.79830
O2039       O  0.98002091  0.59826762  0.51736842    -0.80520
C2040       C  0.89513699  0.46216613  0.42690078     0.94740
O2041       O  0.97134197  0.49433531  0.49476408    -0.78470
O2042       O  0.93302014  0.56289553  0.39255506    -0.83670
C2043       C  0.67564328  0.61854566  0.42542345     0.97370
C2044       C  0.90804936  0.57052588  0.40327558     1.03280
O2045       O  0.98234061  0.62096961  0.43974849    -0.79310
C2046       C  0.99304799  0.49877721  0.46838079     1.01580
Fe2047     Fe  0.82427787  0.39856694  0.33143956     1.65780
Fe2048     Fe  0.78791692  0.36422570  0.41698376     1.73250
Fe2049     Fe  0.74057041  0.38609100  0.35685217     1.54410
O2050       O  0.76577883  0.42948630  0.31784954    -0.83050
O2051       O  0.73818145  0.65092944  0.40960183    -0.81350
O2052       O  0.82511044  0.44621414  0.31714312    -0.85550
O2053       O  0.78411700  0.36575706  0.29075058    -0.80410
O2054       O  0.75353125  0.42508651  0.39724111    -0.82180
O2055       O  0.81236177  0.33355056  0.39706581    -0.84930
C2056       C  0.74879145  0.34383723  0.29263854     0.95840
C2057       C  0.79943089  0.45286045  0.31061603     1.03280
O2058       O  0.78507733  0.38352601  0.36843980    -1.13910
O2059       O  0.83792437  0.40871193  0.42802089    -0.76340
O2060       O  0.86411878  0.43007191  0.37183607    -0.79830
O2061       O  0.72823311  0.34648519  0.31723086    -0.80520
C2062       C  0.86434192  0.43137261  0.40768839     0.94740
O2063       O  0.83216589  0.35516317  0.33982898    -0.78470
O2064       O  0.76361412  0.39348924  0.44204196    -0.83670
C2065       C  0.70796289  0.65086576  0.40917806     0.97370
C2066       C  0.75598244  0.41845906  0.43132204     1.03280
O2067       O  0.70553795  0.34416789  0.39485258    -0.79310
C2068       C  0.82772792  0.33346072  0.36621499     1.01580
Fe2069     Fe  0.76666708  0.61668517  0.66982678     1.65780
Fe2070     Fe  0.76464827  0.65102777  0.58428335     1.73250
Fe2071     Fe  0.02877035  0.62916373  0.64441369     1.54420
O2072       O  0.01058346  0.58576898  0.68341688    -0.83050
O2073       O  0.76154307  0.36432432  0.59166802    -0.81350
O2074       O  0.71985193  0.56903749  0.68412066    -0.85550
O2075       O  0.75931428  0.64949413  0.71051594    -0.80410
O2076       O  0.00273676  0.59016804  0.60402513    -0.82180
O2077       O  0.81976740  0.68170111  0.60420116    -0.84930
C2078       C  0.74590994  0.67141583  0.70862726     0.95840
C2079       C  0.02086004  0.56239268  0.69064824     1.03280
O2080       O  0.74250824  0.63172717  0.63282663    -1.13910
O2081       O  0.77016944  0.60654144  0.57324512    -0.76340
O2082       O  0.77500496  0.58518130  0.62942983    -0.79830
O2083       O  0.72270481  0.66876955  0.68403452    -0.80520
C2084       C  0.77392734  0.58388077  0.59357783     0.94740
O2085       O  0.81795866  0.66008976  0.66143885    -0.78470
O2086       O  0.71108264  0.62176560  0.55922472    -0.83670
C2087       C  0.73138872  0.36438862  0.59208923     0.97360
C2088       C  0.01181532  0.59679560  0.56994427     1.03280
O2089       O  0.70232806  0.33775340  0.60641266    -0.79310
C2090       C  0.83522322  0.34845825  0.63505236     1.01580
Fe2091     Fe  0.76667483  0.51303074  0.49811279     1.65780
Fe2092     Fe  0.76465218  0.47666159  0.58365290     1.73250
Fe2093     Fe  0.69544395  0.42932111  0.52351803     1.54410
O2094       O  0.01059390  0.45453221  0.48451436    -0.83050
O2095       O  0.76154516  0.42692581  0.57626493    -0.81350
O2096       O  0.71986146  0.51386467  0.48381626    -0.85550
O2097       O  0.75932642  0.47287352  0.45742112    -0.80410
O2098       O  0.00273943  0.44227934  0.56390703    -0.82180
O2099       O  0.81977343  0.50110605  0.56373404    -0.84930
C2100       C  0.74592300  0.43754794  0.45930740     0.95840
C2101       C  0.02087109  0.48818514  0.47728390     1.03280
O2102       O  0.74251419  0.47382708  0.53510960    -1.13910
O2103       O  0.77017464  0.52666939  0.59469599    -0.76340
O2104       O  0.77500764  0.55286690  0.53851289    -0.79830
O2105       O  0.72271637  0.41698709  0.48389798    -0.80520
C2106       C  0.77392962  0.55308779  0.57436484     0.94740
O2107       O  0.81796620  0.52091916  0.50650126    -0.78470
O2108       O  0.71108322  0.45235874  0.60870971    -0.83670
C2109       C  0.73139006  0.39670858  0.57584239     0.97360
C2110       C  0.01181565  0.44472851  0.59798874     1.03280
O2111       O  0.70233088  0.39428572  0.56151764    -0.79310
C2112       C  0.83523032  0.51647685  0.53288449     1.01580
Fe2113     Fe  0.70979534  0.84636266  0.00315303     1.65780
Fe2114     Fe  0.67544870  0.80999474  0.91761240     1.73250
Fe2115     Fe  0.69731722  0.76265207  0.97774668     1.54410
O2116       O  0.74071489  0.78786378  0.01674722    -0.83050
O2117       O  0.96215350  0.76025947  0.92499916    -0.81350
O2118       O  0.75744188  0.84719572  0.01745170    -0.85550
O2119       O  0.67698662  0.80620572  0.04384481    -0.80410
O2120       O  0.73631054  0.77560898  0.93735581    -0.82180
O2121       O  0.97810608  0.83443989  0.93753155    -0.84930
C2122       C  0.65506641  0.77087995  0.04195955     0.95840
C2123       C  0.76408825  0.82151645  0.02398128     1.03280
O2124       O  0.69475226  0.80715882  0.96615582    -1.13910
O2125       O  0.71993383  0.86000247  0.90656961    -0.76340
O2126       O  0.74129884  0.88619872  0.96275275    -0.79830
O2127       O  0.65771343  0.75031892  0.01736946    -0.80520
C2128       C  0.74259736  0.88642006  0.92690037     0.94740
O2129       O  0.66639331  0.85425258  0.99476400    -0.78470
O2130       O  0.70471303  0.78569081  0.89255447    -0.83670
C2131       C  0.96209015  0.73004094  0.92542330     0.97360
C2132       C  0.72968357  0.77805995  0.90327457     1.03280
O2133       O  0.98872574  0.72761664  0.93974891    -0.79310
C2134       C  0.97802012  0.84981041  0.96838120     1.01580
Fe2135     Fe  0.81345592  0.95001932  0.83143834     1.65780
Fe2136     Fe  0.84981698  0.98436108  0.91698240     1.73250
Fe2137     Fe  0.89716377  0.96249574  0.85685108     1.54420
O2138       O  0.87195523  0.91909963  0.81784941    -0.83050
O2139       O  0.89955231  0.69765748  0.90960036    -0.81350
O2140       O  0.81262383  0.90237264  0.81714112    -0.85550
O2141       O  0.85361654  0.98282978  0.79074924    -0.80410
O2142       O  0.88420372  0.92350089  0.89724095    -0.82180
O2143       O  0.82537189  0.01503598  0.89706404    -0.84930
C2144       C  0.88894218  0.00474923  0.79263669     0.95840
C2145       C  0.83830328  0.89572604  0.81061478     1.03280
O2146       O  0.85265666  0.96506054  0.86843854    -1.13910
O2147       O  0.79980966  0.93987470  0.92801978    -0.76340
O2148       O  0.77361538  0.91851378  0.87183515    -0.79830
O2149       O  0.90950062  0.00210095  0.81722875    -0.80520
C2150       C  0.77339229  0.91721350  0.90768754     0.94740
O2151       O  0.80556679  0.99342237  0.83982783    -0.78470
O2152       O  0.87412008  0.95509797  0.94204129    -0.83670
C2153       C  0.92977089  0.69772120  0.90917694     0.97360
C2154       C  0.88175227  0.93012839  0.93132182     1.03280
O2155       O  0.93219617  0.67108613  0.89485096    -0.79310
C2156       C  0.81000503  0.68179185  0.86621347     1.01580
Fe2157     Fe  0.81347164  0.89316526  0.33648913     1.65780
Fe2158     Fe  0.84983403  0.89518696  0.25094731     1.73250
Fe2159     Fe  0.89717912  0.96439551  0.31108153     1.54410
O2160       O  0.87197187  0.64924566  0.35008851    -0.83050
O2161       O  0.89956859  0.89829230  0.25833419    -0.81350
O2162       O  0.81263922  0.93998000  0.35078265    -0.85550
O2163       O  0.85363278  0.90051526  0.37717899    -0.80410
O2164       O  0.88421719  0.65709923  0.27069542    -0.82180
O2165       O  0.82538907  0.84006573  0.27086423    -0.84930
C2166       C  0.88895816  0.91391775  0.37529071     0.95840
C2167       C  0.83831914  0.63897018  0.35731515     1.03280
O2168       O  0.85267236  0.91732520  0.29949106    -1.13910
O2169       O  0.79982671  0.88966649  0.23990598    -0.76340
O2170       O  0.77363147  0.88483056  0.29609058    -0.79830
O2171       O  0.90951716  0.93712357  0.35069873    -0.80520
C2172       C  0.77340853  0.88590941  0.26023828     0.94740
O2173       O  0.80558435  0.84187387  0.32810084    -0.78470
O2174       O  0.87413687  0.94875517  0.22589221    -0.83670
C2175       C  0.92978605  0.92844719  0.25875632     0.97370
C2176       C  0.88176647  0.64802233  0.23661384     1.03280
O2177       O  0.93221021  0.95750782  0.27307897    -0.79310
C2178       C  0.81002282  0.82460939  0.30171517     1.01580
Fe2179     Fe  0.70980412  0.89316541  0.16477613     1.65780
Fe2180     Fe  0.67546506  0.89518700  0.25031931     1.73250
Fe2181     Fe  0.69732581  0.96439660  0.19018546     1.54420
O2182       O  0.74071809  0.64924852  0.15118044    -0.83050
O2183       O  0.96216939  0.89829287  0.24293459    -0.81350
O2184       O  0.75745040  0.93998050  0.15048216    -0.85550
O2185       O  0.67699163  0.90051524  0.12408686    -0.80410
O2186       O  0.73632350  0.65709955  0.23057228    -0.82180
O2187       O  0.97812238  0.84006625  0.23040206    -0.84930
C2188       C  0.65506879  0.91391853  0.12597523     0.95840
C2189       C  0.76409517  0.63897228  0.14395318     1.03280
O2190       O  0.69476340  0.91732565  0.20177516    -1.13910
O2191       O  0.71995160  0.88966545  0.26135874    -0.76340
O2192       O  0.74131091  0.88483056  0.20517370    -0.79830
O2193       O  0.65771667  0.93712569  0.15056678    -0.80520
C2194       C  0.74261301  0.88590914  0.24102600     0.94740
O2195       O  0.66640093  0.84187384  0.17316514    -0.78470
O2196       O  0.70472973  0.94875472  0.27537532    -0.83670
C2197       C  0.96210502  0.92844739  0.24251125     0.97370
C2198       C  0.72969922  0.64802192  0.26465383     1.03280
O2199       O  0.98873976  0.95750790  0.22818759    -0.79310
C2200       C  0.97803135  0.82460982  0.19955073     1.01580
Fe2201     Fe  0.87106677  0.73190219  0.16982871     1.65780
Fe2202     Fe  0.87308567  0.69755944  0.08428536     1.73250
Fe2203     Fe  0.94229696  0.71942345  0.14441551     1.54420
O2204       O  0.96048411  0.76281860  0.18341812    -0.83050
O2205       O  0.87619064  0.98426280  0.09167017    -0.81350
O2206       O  0.91788184  0.77954950  0.18412315    -0.85550
O2207       O  0.87841895  0.69909283  0.21051791    -0.80410
O2208       O  0.63499749  0.75841876  0.10402631    -0.82180
O2209       O  0.81796646  0.66688619  0.10420339    -0.84930
C2210       C  0.89182362  0.67717140  0.20862949     0.95840
C2211       C  0.95020720  0.78619450  0.19065021     1.03280
O2212       O  0.89522575  0.71686015  0.13282858    -1.13910
O2213       O  0.86756478  0.74204592  0.07324698    -0.76340
O2214       O  0.86272963  0.76340652  0.12943155    -0.79830
O2215       O  0.91502911  0.67981798  0.18403696    -0.80520
C2216       C  0.86380725  0.76470690  0.09357953     0.94740
O2217       O  0.81977497  0.68849799  0.16144071    -0.78470
O2218       O  0.92665130  0.72682133  0.05922626    -0.83670
C2219       C  0.90634497  0.98419847  0.09209110     0.97370
C2220       C  0.95925215  0.75179114  0.06994547     1.03280
O2221       O  0.93540557  0.67750010  0.10641485    -0.79310
C2222       C  0.80251048  0.66679595  0.13505443     1.01580
Fe2223     Fe  0.87106000  0.83555680  0.99811381     1.65780
Fe2224     Fe  0.87308167  0.87192578  0.08365382     1.73250
Fe2225     Fe  0.94229050  0.91926671  0.02351919     1.54410
O2226       O  0.96047484  0.89405564  0.98451639    -0.83050
O2227       O  0.87618860  0.92166153  0.07626590    -0.81350
O2228       O  0.91787343  0.83472337  0.98381659    -0.85550
O2229       O  0.87840774  0.87571390  0.95742202    -0.80410
O2230       O  0.63499479  0.90630891  0.06390894    -0.82180
O2231       O  0.81796053  0.84748118  0.06373445    -0.84930
C2232       C  0.89181163  0.91103960  0.95930768     0.95840
C2233       C  0.95019731  0.86040281  0.97728486     1.03280
O2234       O  0.89522022  0.87476056  0.03511062    -1.13910
O2235       O  0.86755926  0.82191801  0.09469714    -0.76340
O2236       O  0.86272792  0.79572095  0.03851418    -0.79830
O2237       O  0.91501845  0.93160053  0.98389811    -0.80520
C2238       C  0.86380514  0.79549987  0.07436617     0.94740
O2239       O  0.81976823  0.82766717  0.00650233    -0.78470
O2240       O  0.92665037  0.89622871  0.10871124    -0.83670
C2241       C  0.90634366  0.95187879  0.07584356     0.97360
C2242       C  0.95925148  0.90385931  0.09799058     1.03280
O2243       O  0.93540283  0.95430196  0.06151835    -0.79310
C2244       C  0.80250381  0.83210962  0.03288513     1.01580
Fe2245     Fe  0.82426137  0.78875406  0.83648729     1.65780
Fe2246     Fe  0.78789934  0.78673324  0.75094546     1.73250
Fe2247     Fe  0.74055382  0.71752421  0.81107956     1.54410
O2248       O  0.76576094  0.03267335  0.85008611    -0.83050
O2249       O  0.73816473  0.78362787  0.75833214    -0.81350
O2250       O  0.82509349  0.74193922  0.85078110    -0.85550
O2251       O  0.78410018  0.78140432  0.87717718    -0.80410
O2252       O  0.75351576  0.02482082  0.77069317    -0.82180
O2253       O  0.81234434  0.84185433  0.77086271    -0.84930
C2254       C  0.74877473  0.76800160  0.87528927     0.95840
C2255       C  0.79941361  0.70961560  0.85731327     1.03280
O2256       O  0.78506069  0.76459455  0.79948918    -1.13910
O2257       O  0.83790671  0.79225381  0.73990411    -0.76340
O2258       O  0.86410148  0.79708850  0.79608869    -0.79830
O2259       O  0.72821571  0.74479581  0.85069730    -0.80520
C2260       C  0.86432467  0.79601033  0.76023634     0.94740
O2261       O  0.83214941  0.84004567  0.82809897    -0.78470
O2262       O  0.76359660  0.73316526  0.72589010    -0.83670
C2263       C  0.70794725  0.75347300  0.75875422     0.97360
C2264       C  0.75596686  0.70056470  0.73661165     1.03280
O2265       O  0.70552290  0.72441237  0.77307714    -0.79310
C2266       C  0.82771100  0.85731044  0.80171355     1.01460
Fe2267     Fe  0.92792946  0.78875528  0.66477398     1.65780
Fe2268     Fe  0.96226833  0.78673309  0.75031705     1.73250
Fe2269     Fe  0.94040761  0.71752379  0.69018320     1.54420
O2270       O  0.89701543  0.03267216  0.65117828    -0.83050
O2271       O  0.67556405  0.78362738  0.74293207    -0.81350
O2272       O  0.88028325  0.74194031  0.65047989    -0.85550
O2273       O  0.96074195  0.78140564  0.62408466    -0.80410
O2274       O  0.90140995  0.02482046  0.73057022    -0.82180
O2275       O  0.99294438  0.84185399  0.73039990    -0.84930
C2276       C  0.98266475  0.76800234  0.62597309     0.95840
C2277       C  0.87363846  0.70961519  0.64395098     1.03280
O2278       O  0.94296999  0.76459470  0.70177293    -1.13910
O2279       O  0.91778167  0.79225442  0.76135660    -0.76340
O2280       O  0.89642257  0.79708988  0.70517166    -0.79830
O2281       O  0.98001670  0.74479496  0.65056451    -0.80520
C2282       C  0.89512031  0.79601086  0.74102397     0.94740
O2283       O  0.97133275  0.84004683  0.67316300    -0.78470
O2284       O  0.93300376  0.73316523  0.77537314    -0.83670
C2285       C  0.67562840  0.75347286  0.74250888     0.97370
C2286       C  0.90803433  0.70056463  0.76465179     1.03280
O2287       O  0.98232703  0.72441239  0.72818520    -0.79310
C2288       C  0.99303565  0.85731065  0.69954861     1.01580
Fe2289     Fe  0.92793901  0.83555721  0.50315303     1.65780
Fe2290     Fe  0.96228488  0.87192514  0.41761225     1.73250
Fe2291     Fe  0.94041647  0.91926740  0.47774681     1.54420
O2292       O  0.89701979  0.89405575  0.51674840    -0.83050
O2293       O  0.67557999  0.92166050  0.42499900    -0.81350
O2294       O  0.88029192  0.83472359  0.51745084    -0.85550
O2295       O  0.96074706  0.87571438  0.54384467    -0.80410
O2296       O  0.90142240  0.90630980  0.43735689    -0.82180
O2297       O  0.99296110  0.84748019  0.43753086    -0.84930
C2298       C  0.98266769  0.91104003  0.54195875     0.95840
C2299       C  0.87364586  0.86040296  0.52398120     1.03280
O2300       O  0.94298163  0.87476087  0.46615579    -1.13910
O2301       O  0.91779985  0.82191733  0.40656976    -0.76340
O2302       O  0.89643611  0.79572074  0.46275308    -0.79830
O2303       O  0.98002091  0.93160096  0.51736842    -0.80520
C2304       C  0.89513699  0.79549947  0.42690078     0.94740
O2305       O  0.97134197  0.82766864  0.49476408    -0.78470
O2306       O  0.93302014  0.89622887  0.39255506    -0.83670
C2307       C  0.67564328  0.95187900  0.42542345     0.97370
C2308       C  0.90804936  0.90385921  0.40327558     1.03280
O2309       O  0.98234061  0.95430294  0.43974849    -0.79310
C2310       C  0.99304799  0.83211054  0.46838079     1.01580
Fe2311     Fe  0.82427787  0.73190028  0.33143956     1.65780
Fe2312     Fe  0.78791692  0.69755903  0.41698376     1.73250
Fe2313     Fe  0.74057041  0.71942433  0.35685217     1.54410
O2314       O  0.76577883  0.76281963  0.31784954    -0.83050
O2315       O  0.73818145  0.98426277  0.40960183    -0.81350
O2316       O  0.82511044  0.77954748  0.31714312    -0.85550
O2317       O  0.78411700  0.69909040  0.29075058    -0.80410
O2318       O  0.75353125  0.75841984  0.39724111    -0.82180
O2319       O  0.81236177  0.66688390  0.39706581    -0.84930
C2320       C  0.74879145  0.67717056  0.29263854     0.95840
C2321       C  0.79943089  0.78619378  0.31061603     1.03280
O2322       O  0.78507733  0.71685935  0.36843980    -1.13910
O2323       O  0.83792437  0.74204526  0.42802089    -0.76340
O2324       O  0.86411878  0.76340524  0.37183607    -0.79830
O2325       O  0.72823311  0.67981853  0.31723086    -0.80520
C2326       C  0.86434192  0.76470594  0.40768839     0.94740
O2327       O  0.83216589  0.68849650  0.33982898    -0.78470
O2328       O  0.76361412  0.72682257  0.44204196    -0.83670
C2329       C  0.70796289  0.98419910  0.40917806     0.97370
C2330       C  0.75598244  0.75179240  0.43132204     1.03280
O2331       O  0.70553795  0.67750122  0.39485258    -0.79310
C2332       C  0.82772792  0.66679405  0.36621499     1.01580
Fe2333     Fe  0.76666708  0.95001850  0.66982678     1.65780
Fe2334     Fe  0.76464827  0.98436111  0.58428335     1.73250
Fe2335     Fe  0.02877034  0.96249706  0.64441369     1.54420
O2336       O  0.01058345  0.91910231  0.68341688    -0.83050
O2337       O  0.76154307  0.69765765  0.59166802    -0.81350
O2338       O  0.71985193  0.90237083  0.68412066    -0.85550
O2339       O  0.75931428  0.98282746  0.71051594    -0.80410
O2340       O  0.00273676  0.92350138  0.60402513    -0.82180
O2341       O  0.81976740  0.01503444  0.60420116    -0.84930
C2342       C  0.74590994  0.00474916  0.70862726     0.95840
C2343       C  0.02086004  0.89572601  0.69064824     1.03280
O2344       O  0.74250824  0.96506050  0.63282663    -1.13910
O2345       O  0.77016944  0.93987477  0.57324512    -0.76340
O2346       O  0.77500496  0.91851463  0.62942983    -0.79830
O2347       O  0.72270481  0.00210288  0.68403452    -0.80520
C2348       C  0.77392734  0.91721410  0.59357783     0.94740
O2349       O  0.81795866  0.99342309  0.66143885    -0.78470
O2350       O  0.71108264  0.95509894  0.55922472    -0.83670
C2351       C  0.73138871  0.69772196  0.59208923     0.97360
C2352       C  0.01181532  0.93012893  0.56994427     1.03280
O2353       O  0.70232806  0.67108673  0.60641267    -0.79310
C2354       C  0.83522322  0.68179158  0.63505236     1.01580
Fe2355     Fe  0.76667483  0.84636407  0.49811279     1.65780
Fe2356     Fe  0.76465218  0.80999493  0.58365290     1.73250
Fe2357     Fe  0.69544395  0.76265445  0.52351803     1.54410
O2358       O  0.01059390  0.78786554  0.48451436    -0.83050
O2359       O  0.76154516  0.76025915  0.57626493    -0.81350
O2360       O  0.71986146  0.84719800  0.48381626    -0.85550
O2361       O  0.75932642  0.80620686  0.45742112    -0.80410
O2362       O  0.00273943  0.77561268  0.56390703    -0.82180
O2363       O  0.81977343  0.83443938  0.56373404    -0.84930
C2364       C  0.74592300  0.77088127  0.45930740     0.95840
C2365       C  0.02087109  0.82151848  0.47728390     1.03280
O2366       O  0.74251419  0.80716041  0.53510960    -1.13910
O2367       O  0.77017464  0.86000273  0.59469599    -0.76340
O2368       O  0.77500764  0.88620023  0.53851289    -0.79830
O2369       O  0.72271637  0.75032042  0.48389798    -0.80520
C2370       C  0.77392962  0.88642112  0.57436484     0.94740
O2371       O  0.81796620  0.85425249  0.50650126    -0.78470
O2372       O  0.71108322  0.78569207  0.60870971    -0.83670
C2373       C  0.73139006  0.73004192  0.57584239     0.97360
C2374       C  0.01181565  0.77806184  0.59798874     1.03280
O2375       O  0.70233088  0.72761905  0.56151764    -0.79310
C2376       C  0.83523032  0.84981018  0.53288449     1.01580
loop_ 
_geom_bond_atom_site_label_1 
_geom_bond_atom_site_label_2 
_geom_bond_distance 
_geom_bond_site_symmetry_2 
_ccdc_geom_bond_type 
Fe1          O17   2.015   1_454  S
Fe1           O7   2.121       .  S
Fe1          O14   2.094   1_554  S
Fe1           O6   2.033       .  S
Fe1          O12   1.946   1_554  S
Fe2          O13   2.017       .  S
Fe2          O18   2.133       .  S
Fe2        O1589   2.027   1_455  S
Fe2        O1593   2.116   1_455  S
Fe2          O12   1.941       .  S
Fe3           O8   2.035       .  S
Fe3          O15   2.036   1_456  S
Fe3           O4   2.102   1_556  S
Fe3        O1605   2.116   1_455  S
Fe3          O12   1.954       .  S
O4           C11   1.271       .  A
O5         Fe794   2.027       .  S
O5           C19   1.257       .  A
O6           C11   1.254       .  A
O7           C10   1.288   1_455  A
O8           C20   1.265       .  A
O9         Fe794   2.116       .  S
O9           C22   1.276       .  A
C10          O15   1.270       .  A
C10        C1692   1.464       .  S
C11         C132   1.466       .  S
O13          C16   1.262       .  A
O14          C16   1.283       .  A
C16          C38   1.455       .  S
O17        C1606   1.255       .  A
O18          C20   1.289       .  A
C19          O21   1.271       .  A
C19          C41   1.466       .  S
C20         C142   1.464       .  S
O21        Fe795   2.116       .  S
C22         O809   1.255       .  A
C22         C121   1.466       .  S
Fe23         O39   2.015       .  S
Fe23         O29   2.121       .  S
Fe23         O36   2.094       .  S
Fe23         O28   2.033       .  S
Fe23         O34   1.946       .  S
Fe24         O31   2.116       .  S
Fe24         O35   2.017       .  S
Fe24         O40   2.132       .  S
Fe24        O291   2.027       .  S
Fe24         O34   1.941       .  S
Fe25         O30   2.035       .  S
Fe25         O37   2.036       .  S
Fe25         O26   2.102       .  S
Fe25        O307   2.116       .  S
Fe25         O34   1.954       .  S
O26          C33   1.271       .  A
O27        Fe552   2.027   1_545  S
O27          C41   1.257       .  A
O28          C33   1.254       .  A
O29          C32   1.288       .  A
O30          C42   1.265       .  A
O31         C308   1.276       .  A
C32          O37   1.270       .  A
C32         C438   1.464       .  S
C33         C154   1.466       .  S
O35          C38   1.262       .  A
O36          C38   1.283       .  A
O39         C308   1.255       .  A
O40          C42   1.289       .  A
C41          O43   1.271       .  A
C42         C120   1.464       .  S
O43        Fe553   2.116   1_545  S
C44         O559   1.276       .  A
C44         O567   1.255   1_545  A
C44         C143   1.466       .  S
Fe45         O61   2.015       .  S
Fe45         O51   2.121       .  S
Fe45         O58   2.094       .  S
Fe45         O50   2.033       .  S
Fe45         O56   1.946       .  S
Fe46         O49   2.027       .  S
Fe46         O53   2.116       .  S
Fe46         O57   2.017       .  S
Fe46         O62   2.133       .  S
Fe46         O56   1.941       .  S
Fe47         O65   2.116       .  S
Fe47         O59   2.036       .  S
Fe47        O316   2.035       .  S
Fe47        O312   2.102       .  S
Fe47         O56   1.954       .  S
O48        Fe575   2.102       .  S
O48          C55   1.271       .  A
O49          C63   1.257       .  A
O50         C319   1.254       .  A
O51          C54   1.288       .  A
O52        Fe575   2.035       .  S
O52          C64   1.265       .  A
O53          C66   1.276       .  A
C54          O59   1.270       .  A
C54         C196   1.464       .  S
C55         O578   1.254       .  A
C55         C220   1.466   1_565  S
O57          C60   1.262       .  A
O58          C60   1.283       .  A
C60          C82   1.455       .  S
O61          C66   1.255       .  A
O62         C328   1.289       .  A
C63          O65   1.271       .  A
C63          C85   1.466       .  S
C64         O590   1.289       .  A
C64          C98   1.464   1_565  S
C66         C209   1.466       .  S
Fe67         O83   2.015   1_455  S
Fe67         O73   2.121       .  S
Fe67         O80   2.094       .  S
Fe67         O72   2.033       .  S
Fe67         O78   1.946       .  S
Fe68         O79   2.017       .  S
Fe68         O84   2.133       .  S
Fe68       O1655   2.027   1_455  S
Fe68       O1659   2.116   1_455  S
Fe68         O78   1.941       .  S
Fe69         O81   2.036   1_455  S
Fe69       O1671   2.116   1_455  S
Fe69        O338   2.035       .  S
Fe69        O334   2.102       .  S
Fe69         O78   1.954       .  S
O70        Fe597   2.102       .  S
O70          C77   1.271       .  A
O71        Fe860   2.027       .  S
O71          C85   1.257       .  A
O72         C341   1.254       .  A
O73          C76   1.288   1_455  A
O74        Fe597   2.035       .  S
O74          C86   1.265       .  A
O75        Fe860   2.116       .  S
O75          C88   1.276       .  A
C76          O81   1.270       .  A
C76        C1714   1.464       .  S
C77         O600   1.254       .  A
C77         C110   1.466   1_565  S
O79          C82   1.262       .  A
O80          C82   1.283       .  A
O83        C1672   1.255       .  A
O84         C350   1.289       .  A
C85          O87   1.271       .  A
C86         O612   1.289       .  A
C86         C208   1.464   1_565  S
O87        Fe861   2.116       .  S
C88         O875   1.255       .  A
C88          C99   1.466       .  S
Fe89        O105   2.015       .  S
Fe89         O95   2.121       .  S
Fe89        O102   2.094       .  S
Fe89         O94   2.033       .  S
Fe89        O100   1.946       .  S
Fe90         O97   2.116       .  S
Fe90        O101   2.017       .  S
Fe90        O106   2.132       .  S
Fe90        O621   2.027   1_545  S
Fe90        O100   1.941       .  S
Fe91        O109   2.116       .  S
Fe91        O103   2.036       .  S
Fe91         O92   2.102       .  S
Fe91        O888   2.035       .  S
Fe91        O100   1.954       .  S
O92          C99   1.271       .  A
O93        Fe354   2.027       .  S
O93         C107   1.257       .  A
O94          C99   1.254       .  A
O95          C98   1.288       .  A
O96       Fe1675   2.035       .  S
O96        C1692   1.265       .  A
O97         C110   1.276       .  A
C98         O103   1.270       .  A
O101        C104   1.262       .  A
O102        C104   1.283       .  A
C104        C126   1.455       .  S
O105        C110   1.255       .  A
O106        C108   1.289       .  A
C107        O373   1.271       .  A
C107        C129   1.466       .  S
C108        O888   1.265       .  A
C108        C802   1.464       .  S
O109        C635   1.271   1_545  A
Fe111       O127   2.015   1_556  S
Fe111       O117   2.121       .  S
Fe111       O124   2.094   1_556  S
Fe111       O116   2.033       .  S
Fe111       O122   1.946   1_556  S
Fe112       O115   2.027       .  S
Fe112       O119   2.116       .  S
Fe112       O123   2.017       .  S
Fe112       O128   2.133       .  S
Fe112       O122   1.941       .  S
Fe113       O131   2.116       .  S
Fe113       O125   2.036   1_554  S
Fe113       O114   2.102   1_554  S
Fe113       O910   2.035       .  S
Fe113       O122   1.954       .  S
O114        C121   1.271       .  A
O115        C129   1.257       .  A
O116        C121   1.254       .  A
O117        C120   1.288       .  A
O118      Fe1697   2.035       .  S
O118       C1714   1.265       .  A
O119        C132   1.276       .  A
C120        O125   1.270       .  A
O123        C126   1.262       .  A
O124        C126   1.283       .  A
O127        C132   1.255       .  A
O128        C130   1.289       .  A
C129        O131   1.271       .  A
C130        O910   1.265       .  A
C130        C868   1.464       .  S
Fe133       O149   2.015       .  S
Fe133       O139   2.121       .  S
Fe133       O146   2.094       .  S
Fe133       O138   2.033       .  S
Fe133       O144   1.946       .  S
Fe134       O137   2.027       .  S
Fe134       O141   2.116       .  S
Fe134       O145   2.017       .  S
Fe134       O150   2.132       .  S
Fe134       O144   1.941       .  S
Fe135       O153   2.116       .  S
Fe135       O147   2.036       .  S
Fe135       O668   2.035       .  S
Fe135       O664   2.102       .  S
Fe135       O144   1.954       .  S
O136       Fe399   2.102       .  S
O136        C407   1.271       .  A
O137        C151   1.257       .  A
O138        C143   1.254       .  A
O139        C142   1.288       .  A
O140       Fe399   2.035       .  S
O140        C416   1.265       .  A
O141        C154   1.276       .  A
C142        O147   1.270       .  A
C143        O664   1.271       .  A
O145        C148   1.262       .  A
O146        C148   1.283       .  A
C148        C170   1.455       .  S
O149        C154   1.255       .  A
O150        C152   1.289       .  A
C151        O153   1.271       .  A
C151        C173   1.466       .  S
C152        O668   1.265       .  A
C152        C758   1.464       .  S
Fe155       O171   2.015       .  S
Fe155       O161   2.121       .  S
Fe155       O168   2.094       .  S
Fe155       O160   2.033       .  S
Fe155       O166   1.946       .  S
Fe156       O163   2.116       .  S
Fe156       O167   2.017       .  S
Fe156       O172   2.133       .  S
Fe156       O951   2.027       .  S
Fe156       O166   1.941       .  S
Fe157       O175   2.116       .  S
Fe157       O169   2.036       .  S
Fe157       O690   2.035       .  S
Fe157       O686   2.102       .  S
Fe157       O166   1.954       .  S
O158       Fe421   2.102       .  S
O158        C429   1.271       .  A
O159      Fe1740   2.027   1_455  S
O159        C173   1.257       .  A
O160        C165   1.254       .  A
O161        C164   1.288       .  A
O162       Fe421   2.035       .  S
O162        C438   1.265       .  A
O163        C176   1.276       .  A
C164        O169   1.270       .  A
C164        C262   1.464       .  S
C165        O686   1.271       .  A
C165        C242   1.466       .  S
O167        C170   1.262       .  A
O168        C170   1.283       .  A
O171        C176   1.255       .  A
O172        C174   1.289       .  A
C173       O1759   1.271   1_455  A
C174        O690   1.265       .  A
C174        C560   1.464       .  S
O175        C965   1.271       .  A
C176        C231   1.466       .  S
Fe177       O193   2.015       .  S
Fe177       O183   2.121       .  S
Fe177       O190   2.094       .  S
Fe177       O182   2.033       .  S
Fe177       O188   1.946       .  S
Fe178       O185   2.116       .  S
Fe178       O189   2.017       .  S
Fe178       O194   2.133       .  S
Fe178       O973   2.027       .  S
Fe178       O188   1.941       .  S
Fe179       O197   2.116       .  S
Fe179       O184   2.035       .  S
Fe179       O191   2.036       .  S
Fe179       O180   2.102       .  S
Fe179       O188   1.954       .  S
O180        C187   1.271       .  A
O181      Fe1762   2.027   1_455  S
O181        C195   1.257       .  A
O182        C187   1.254       .  A
O183        C186   1.288       .  A
O184        C196   1.265       .  A
O185        C198   1.276       .  A
C186        O191   1.270       .  A
C186        C240   1.464       .  S
C187        C264   1.466       .  S
O189        C192   1.262       .  A
O190        C192   1.283       .  A
C192        C214   1.455       .  S
O193        C198   1.255       .  A
O194        C196   1.289       .  A
C195       O1781   1.271   1_455  A
C195        C217   1.466       .  S
O197        C987   1.271       .  A
C198        C253   1.466       .  S
Fe199       O215   2.015       .  S
Fe199       O205   2.121       .  S
Fe199       O212   2.094       .  S
Fe199       O204   2.033       .  S
Fe199       O210   1.946       .  S
Fe200       O207   2.116       .  S
Fe200       O211   2.017       .  S
Fe200       O216   2.132       .  S
Fe200       O731   2.027   1_545  S
Fe200       O210   1.941       .  S
Fe201       O219   2.116       .  S
Fe201       O206   2.034       .  S
Fe201       O213   2.036       .  S
Fe201       O202   2.102       .  S
Fe201       O210   1.954       .  S
O202        C209   1.271       .  A
O203       Fe464   2.027       .  S
O203        C217   1.257       .  A
O204        C209   1.254       .  A
O205        C208   1.288       .  A
O206        C218   1.265       .  A
O207        C220   1.276       .  A
C208        O213   1.270       .  A
O211        C214   1.262       .  A
O212        C214   1.283       .  A
O215        C220   1.255       .  A
O216        C218   1.289       .  A
C217        O483   1.271       .  A
C218        C252   1.464       .  S
O219        C745   1.271   1_545  A
Fe221       O237   2.015       .  S
Fe221       O227   2.121       .  S
Fe221       O234   2.094       .  S
Fe221       O226   2.033       .  S
Fe221       O232   1.946       .  S
Fe222       O229   2.116       .  S
Fe222       O233   2.017       .  S
Fe222       O238   2.132       .  S
Fe222       O489   2.027       .  S
Fe222       O232   1.941       .  S
Fe223       O228   2.034       .  S
Fe223       O224   2.102       .  S
Fe223      O1297   2.116       .  S
Fe223      O1027   2.036       .  S
Fe223      O1024   1.954       .  S
O224        C231   1.271       .  A
O225       Fe750   2.027   1_545  S
O225        C239   1.257       .  A
O226       C1815   1.254       .  A
O227        C230   1.288       .  A
O228        C240   1.265       .  A
O229        C506   1.276       .  A
C230        O235   1.270       .  A
C230        C416   1.464       .  S
C231       O1018   1.254       .  A
O232      Fe1807   1.954       .  S
O233        C236   1.262       .  A
O234        C236   1.283       .  A
O235      Fe1807   2.036       .  S
C236        C258   1.455       .  S
O237        C506   1.255       .  A
O238       C1824   1.289       .  A
C239        O241   1.271       .  A
C239        C261   1.466       .  S
C240       O1030   1.289       .  A
O241      Fe2335   2.116   1_545  S
C242        O757   1.276       .  A
C242        O765   1.255   1_545  A
Fe243       O259   2.015       .  S
Fe243       O249   2.121       .  S
Fe243       O256   2.094       .  S
Fe243       O248   2.033       .  S
Fe243       O254   1.946       .  S
Fe244       O247   2.027       .  S
Fe244       O251   2.116       .  S
Fe244       O255   2.017       .  S
Fe244       O260   2.133       .  S
Fe244       O254   1.941       .  S
Fe245       O263   2.116       .  S
Fe245       O257   2.036       .  S
Fe245      O1834   2.035       .  S
Fe245      O1830   2.102       .  S
Fe245       O254   1.954       .  S
O246      Fe1037   2.102       .  S
O246        C253   1.271       .  A
O247        C261   1.257       .  A
O248       C1837   1.254       .  A
O249        C252   1.288       .  A
O250      Fe1037   2.035       .  S
O250        C262   1.265       .  A
O251        C264   1.276       .  A
C252        O257   1.270       .  A
C253       O1040   1.254       .  A
O255        C258   1.262       .  A
O256        C258   1.283       .  A
O259        C264   1.255       .  A
O260       C1846   1.289       .  A
C261        O263   1.271       .  A
C262       O1052   1.289       .  A
Fe265       O281   2.015   1_454  S
Fe265       O271   2.121       .  S
Fe265       O278   2.094   1_554  S
Fe265       O270   2.033       .  S
Fe265       O276   1.946   1_554  S
Fe266      O1853   2.027   1_455  S
Fe266      O1857   2.116   1_455  S
Fe266       O277   2.017       .  S
Fe266       O282   2.133       .  S
Fe266       O276   1.941       .  S
Fe267      O1869   2.116   1_455  S
Fe267       O272   2.035       .  S
Fe267       O279   2.036   1_456  S
Fe267       O268   2.102   1_556  S
Fe267       O276   1.954       .  S
O268        C275   1.271       .  A
O269      Fe1058   2.027       .  S
O269        C283   1.257       .  A
O270        C275   1.254       .  A
O271        C274   1.288   1_455  A
O272        C284   1.265       .  A
O273      Fe1058   2.116       .  S
O273        C286   1.276       .  A
C274        O279   1.270       .  A
C274       C1956   1.464       .  S
C275        C396   1.466       .  S
O277        C280   1.262       .  A
O278        C280   1.283       .  A
C280        C302   1.455       .  S
O281       C1870   1.255       .  A
O282        C284   1.289       .  A
C283        O285   1.271       .  A
C283        C305   1.466       .  S
C284        C406   1.464       .  S
O285      Fe1059   2.116       .  S
C286       O1073   1.255       .  A
C286        C385   1.466       .  S
Fe287       O303   2.015       .  S
Fe287       O293   2.121       .  S
Fe287       O300   2.094       .  S
Fe287       O292   2.033       .  S
Fe287       O298   1.946       .  S
Fe288       O555   2.027       .  S
Fe288       O295   2.116       .  S
Fe288       O299   2.017       .  S
Fe288       O304   2.132       .  S
Fe288       O298   1.941       .  S
Fe289       O571   2.116       .  S
Fe289       O294   2.035       .  S
Fe289       O301   2.036       .  S
Fe289       O290   2.102       .  S
Fe289       O298   1.954       .  S
O290        C297   1.271       .  A
O291        C305   1.257       .  A
O292        C297   1.254       .  A
O293        C296   1.288       .  A
O294        C306   1.265       .  A
O295        C572   1.276       .  A
C296        O301   1.270       .  A
C296        C702   1.464       .  S
C297        C418   1.466       .  S
O299        C302   1.262       .  A
O300        C302   1.283       .  A
O303        C572   1.255       .  A
O304        C306   1.289       .  A
C305        O307   1.271       .  A
C306        C384   1.464       .  S
C308        C407   1.466       .  S
Fe309       O325   2.015       .  S
Fe309       O315   2.121       .  S
Fe309       O322   2.094       .  S
Fe309       O314   2.033       .  S
Fe309       O320   1.946       .  S
Fe310       O313   2.027       .  S
Fe310       O317   2.116       .  S
Fe310       O321   2.017       .  S
Fe310       O326   2.133       .  S
Fe310       O320   1.941       .  S
Fe311       O329   2.116       .  S
Fe311       O580   2.035       .  S
Fe311       O323   2.036       .  S
Fe311       O576   2.102       .  S
Fe311       O320   1.954       .  S
O312        C319   1.271       .  A
O313        C327   1.257       .  A
O314        C583   1.254       .  A
O315        C318   1.288       .  A
O316        C328   1.265       .  A
O317        C330   1.276       .  A
C318        O323   1.270       .  A
C318        C460   1.464       .  S
C319        C484   1.466       .  S
O321        C324   1.262       .  A
O322        C324   1.283       .  A
C324        C346   1.455       .  S
O325        C330   1.255       .  A
O326        C592   1.289       .  A
C327        O329   1.271       .  A
C327        C349   1.466       .  S
C328        C362   1.464       .  S
C330        C473   1.466       .  S
Fe331       O347   2.015   1_455  S
Fe331       O337   2.121       .  S
Fe331       O344   2.094       .  S
Fe331       O336   2.033       .  S
Fe331       O342   1.946       .  S
Fe332      O1919   2.027   1_455  S
Fe332      O1923   2.116   1_455  S
Fe332       O343   2.017       .  S
Fe332       O348   2.133       .  S
Fe332       O342   1.941       .  S
Fe333      O1935   2.116   1_455  S
Fe333       O602   2.035       .  S
Fe333       O345   2.036   1_455  S
Fe333       O598   2.102       .  S
Fe333       O342   1.954       .  S
O334        C341   1.271       .  A
O335      Fe1124   2.027       .  S
O335        C349   1.257       .  A
O336        C605   1.254       .  A
O337        C340   1.288   1_455  A
O338        C350   1.265       .  A
O339      Fe1124   2.116       .  S
O339        C352   1.276       .  A
C340        O345   1.270       .  A
C340       C1978   1.464       .  S
C341        C374   1.466       .  S
O343        C346   1.262       .  A
O344        C346   1.283       .  A
O347       C1936   1.255       .  A
O348        C614   1.289       .  A
C349        O351   1.271       .  A
C350        C472   1.464       .  S
O351      Fe1125   2.116       .  S
C352       O1139   1.255       .  A
C352        C363   1.466       .  S
Fe353       O369   2.015       .  S
Fe353       O359   2.121       .  S
Fe353       O366   2.094       .  S
Fe353       O358   2.033       .  S
Fe353       O364   1.946       .  S
Fe354       O361   2.116       .  S
Fe354       O365   2.017       .  S
Fe354       O370   2.132       .  S
Fe354       O364   1.941       .  S
Fe355       O373   2.116       .  S
Fe355      O1152   2.035       .  S
Fe355       O367   2.036       .  S
Fe355       O356   2.102       .  S
Fe355       O364   1.954       .  S
O356        C363   1.271       .  A
O357       Fe618   2.027       .  S
O357        C371   1.257       .  A
O358        C363   1.254       .  A
O359        C362   1.288       .  A
O360      Fe1939   2.035       .  S
O360       C1956   1.265       .  A
O361        C374   1.276       .  A
C362        O367   1.270       .  A
O365        C368   1.262       .  A
O366        C368   1.283       .  A
C368        C390   1.455       .  S
O369        C374   1.255       .  A
O370        C372   1.289       .  A
C371        O637   1.271       .  A
C371        C393   1.466       .  S
C372       O1152   1.265       .  A
C372       C1066   1.464       .  S
Fe375       O391   2.015   1_556  S
Fe375       O381   2.121       .  S
Fe375       O388   2.094   1_556  S
Fe375       O380   2.033       .  S
Fe375       O386   1.946   1_556  S
Fe376       O379   2.027       .  S
Fe376       O383   2.116       .  S
Fe376       O387   2.017       .  S
Fe376       O392   2.133       .  S
Fe376       O386   1.941       .  S
Fe377       O395   2.116       .  S
Fe377      O1174   2.035       .  S
Fe377       O389   2.036   1_554  S
Fe377       O378   2.102   1_554  S
Fe377       O386   1.954       .  S
O378        C385   1.271       .  A
O379        C393   1.257       .  A
O380        C385   1.254       .  A
O381        C384   1.288       .  A
O382      Fe1961   2.035       .  S
O382       C1978   1.265       .  A
O383        C396   1.276       .  A
C384        O389   1.270       .  A
O387        C390   1.262       .  A
O388        C390   1.283       .  A
O391        C396   1.255       .  A
O392        C394   1.289       .  A
C393        O395   1.271       .  A
C394       O1174   1.265       .  A
C394       C1132   1.464       .  S
Fe397       O413   2.015       .  S
Fe397       O403   2.121       .  S
Fe397       O410   2.094       .  S
Fe397       O402   2.033       .  S
Fe397       O408   1.946       .  S
Fe398       O401   2.027       .  S
Fe398       O405   2.116       .  S
Fe398       O409   2.017       .  S
Fe398       O414   2.132       .  S
Fe398       O408   1.941       .  S
Fe399       O417   2.116       .  S
Fe399       O411   2.036       .  S
Fe399       O408   1.954       .  S
O400       Fe663   2.102       .  S
O400        C671   1.271       .  A
O401        C415   1.257       .  A
O402        C407   1.254       .  A
O403        C406   1.288       .  A
O404       Fe663   2.035       .  S
O404        C680   1.265       .  A
O405        C418   1.276       .  A
C406        O411   1.270       .  A
O409        C412   1.262       .  A
O410        C412   1.283       .  A
C412        C434   1.455       .  S
O413        C418   1.255       .  A
O414        C416   1.289       .  A
C415        O417   1.271       .  A
C415        C437   1.466       .  S
Fe419       O435   2.015       .  S
Fe419       O425   2.121       .  S
Fe419       O432   2.094       .  S
Fe419       O424   2.033       .  S
Fe419       O430   1.946       .  S
Fe420      O1215   2.027       .  S
Fe420       O427   2.116       .  S
Fe420       O431   2.017       .  S
Fe420       O436   2.133       .  S
Fe420       O430   1.941       .  S
Fe421       O439   2.116       .  S
Fe421       O433   2.036       .  S
Fe421       O430   1.954       .  S
O422       Fe685   2.102       .  S
O422        C693   1.271       .  A
O423      Fe2004   2.027   1_455  S
O423        C437   1.257       .  A
O424        C429   1.254       .  A
O425        C428   1.288       .  A
O426       Fe685   2.035       .  S
O426        C702   1.265       .  A
O427        C440   1.276       .  A
C428        O433   1.270       .  A
C428        C526   1.464       .  S
C429        C506   1.466       .  S
O431        C434   1.262       .  A
O432        C434   1.283       .  A
O435        C440   1.255       .  A
O436        C438   1.289       .  A
C437       O2023   1.271   1_455  A
O439       C1229   1.271       .  A
C440        C495   1.466       .  S
Fe441       O457   2.015       .  S
Fe441       O447   2.121       .  S
Fe441       O454   2.094       .  S
Fe441       O446   2.033       .  S
Fe441       O452   1.946       .  S
Fe442      O1237   2.027       .  S
Fe442       O449   2.116       .  S
Fe442       O453   2.017       .  S
Fe442       O458   2.133       .  S
Fe442       O452   1.941       .  S
Fe443       O461   2.116       .  S
Fe443       O448   2.035       .  S
Fe443       O455   2.036       .  S
Fe443       O444   2.102       .  S
Fe443       O452   1.954       .  S
O444        C451   1.271       .  A
O445      Fe2026   2.027   1_455  S
O445        C459   1.257       .  A
O446        C451   1.254       .  A
O447        C450   1.288       .  A
O448        C460   1.265       .  A
O449        C462   1.276       .  A
C450        O455   1.270       .  A
C450        C504   1.464       .  S
C451        C528   1.466       .  S
O453        C456   1.262       .  A
O454        C456   1.283       .  A
C456        C478   1.455       .  S
O457        C462   1.255       .  A
O458        C460   1.289       .  A
C459       O2045   1.271   1_455  A
C459        C481   1.466       .  S
O461       C1251   1.271       .  A
C462        C517   1.466       .  S
Fe463       O479   2.015       .  S
Fe463       O469   2.121       .  S
Fe463       O476   2.094       .  S
Fe463       O468   2.033       .  S
Fe463       O474   1.946       .  S
Fe464       O471   2.116       .  S
Fe464       O475   2.017       .  S
Fe464       O480   2.132       .  S
Fe464       O474   1.941       .  S
Fe465       O483   2.116       .  S
Fe465       O470   2.034       .  S
Fe465       O477   2.036       .  S
Fe465       O466   2.102       .  S
Fe465       O474   1.954       .  S
O466        C473   1.271       .  A
O467       Fe728   2.027       .  S
O467        C481   1.257       .  A
O468        C473   1.254       .  A
O469        C472   1.288       .  A
O470        C482   1.265       .  A
O471        C484   1.276       .  A
C472        O477   1.270       .  A
O475        C478   1.262       .  A
O476        C478   1.283       .  A
O479        C484   1.255       .  A
O480        C482   1.289       .  A
C481        O747   1.271       .  A
C482        C516   1.464       .  S
Fe485       O501   2.015       .  S
Fe485       O491   2.121       .  S
Fe485       O498   2.094       .  S
Fe485       O490   2.033       .  S
Fe485       O496   1.946       .  S
Fe486       O753   2.027       .  S
Fe486       O493   2.116       .  S
Fe486       O497   2.017       .  S
Fe486       O502   2.132       .  S
Fe486       O496   1.941       .  S
Fe487      O1561   2.116       .  S
Fe487       O492   2.034       .  S
Fe487      O1291   2.036       .  S
Fe487       O488   2.102       .  S
Fe487      O1288   1.954       .  S
O488        C495   1.271       .  A
O489        C503   1.257       .  A
O490       C2079   1.254       .  A
O491        C494   1.288       .  A
O492        C504   1.265       .  A
O493        C770   1.276       .  A
C494        O499   1.270       .  A
C494        C680   1.464       .  S
C495       O1282   1.254       .  A
O496      Fe2071   1.954       .  S
O497        C500   1.262       .  A
O498        C500   1.283       .  A
O499      Fe2071   2.036       .  S
C500        C522   1.455       .  S
O501        C770   1.255       .  A
O502       C2088   1.289       .  A
C503        O505   1.271       .  A
C503        C525   1.466       .  S
C504       O1294   1.289       .  A
O505      Fe1807   2.116       .  S
Fe507       O523   2.015       .  S
Fe507       O513   2.121       .  S
Fe507       O520   2.094       .  S
Fe507       O512   2.033       .  S
Fe507       O518   1.946       .  S
Fe508       O511   2.027       .  S
Fe508       O515   2.116       .  S
Fe508       O519   2.017       .  S
Fe508       O524   2.133       .  S
Fe508       O518   1.941       .  S
Fe509       O527   2.116       .  S
Fe509      O2098   2.035       .  S
Fe509       O521   2.036       .  S
Fe509      O2094   2.102       .  S
Fe509       O518   1.954       .  S
O510      Fe1301   2.102       .  S
O510        C517   1.271       .  A
O511        C525   1.257       .  A
O512       C2101   1.254       .  A
O513        C516   1.288       .  A
O514      Fe1301   2.035       .  S
O514        C526   1.265       .  A
O515        C528   1.276       .  A
C516        O521   1.270       .  A
C517       O1304   1.254       .  A
O519        C522   1.262       .  A
O520        C522   1.283       .  A
O523        C528   1.255       .  A
O524       C2110   1.289       .  A
C525        O527   1.271       .  A
C526       O1316   1.289       .  A
Fe529       O545   2.015   1_454  S
Fe529       O535   2.121       .  S
Fe529       O542   2.094   1_554  S
Fe529       O534   2.033       .  S
Fe529       O540   1.946   1_554  S
Fe530      O2117   2.027   1_455  S
Fe530      O2121   2.116   1_455  S
Fe530       O541   2.017       .  S
Fe530       O546   2.133       .  S
Fe530       O540   1.941       .  S
Fe531      O2133   2.116   1_455  S
Fe531       O536   2.035       .  S
Fe531       O543   2.036   1_456  S
Fe531       O532   2.102   1_556  S
Fe531       O540   1.954       .  S
O532        C539   1.271       .  A
O533      Fe1322   2.027       .  S
O533        C547   1.257       .  A
O534        C539   1.254       .  A
O535        C538   1.288   1_455  A
O536        C548   1.265       .  A
O537      Fe1322   2.116       .  S
O537        C550   1.276       .  A
C538        O543   1.270       .  A
C538       C2220   1.464       .  S
C539        C660   1.466       .  S
O541        C544   1.262       .  A
O542        C544   1.283       .  A
C544        C566   1.455       .  S
O545       C2134   1.255       .  A
O546        C548   1.289       .  A
C547        O549   1.271       .  A
C547        C569   1.466       .  S
C548        C670   1.464       .  S
O549      Fe1323   2.116       .  S
C550       O1337   1.255       .  A
C550        C649   1.466       .  S
Fe551       O567   2.015       .  S
Fe551       O557   2.121       .  S
Fe551       O564   2.094       .  S
Fe551       O556   2.033       .  S
Fe551       O562   1.946       .  S
Fe552       O559   2.116   1_565  S
Fe552       O563   2.017       .  S
Fe552       O568   2.132       .  S
Fe552       O562   1.941       .  S
Fe553       O558   2.035       .  S
Fe553       O565   2.036   1_565  S
Fe553       O554   2.102       .  S
Fe553       O562   1.954       .  S
O554        C561   1.271       .  A
O555        C569   1.257       .  A
O556        C561   1.254       .  A
O557        C560   1.288   1_565  A
O558        C570   1.265       .  A
C560        O565   1.270       .  A
C561        C682   1.466       .  S
O563        C566   1.262       .  A
O564        C566   1.283       .  A
O568        C570   1.289       .  A
C569        O571   1.271       .  A
C570        C648   1.464       .  S
C572        C671   1.466       .  S
Fe573       O589   2.015       .  S
Fe573       O579   2.121       .  S
Fe573       O586   2.094       .  S
Fe573       O578   2.033       .  S
Fe573       O584   1.946       .  S
Fe574       O577   2.027       .  S
Fe574       O581   2.116       .  S
Fe574       O585   2.017       .  S
Fe574       O590   2.133       .  S
Fe574       O584   1.941       .  S
Fe575       O593   2.116       .  S
Fe575       O587   2.036       .  S
Fe575       O584   1.954       .  S
O576        C583   1.271       .  A
O577        C591   1.257       .  A
O579        C582   1.288       .  A
O580        C592   1.265       .  A
O581        C594   1.276       .  A
C582        O587   1.270       .  A
C582        C724   1.464       .  S
C583        C748   1.466       .  S
O585        C588   1.262       .  A
O586        C588   1.283       .  A
C588        C610   1.455       .  S
O589        C594   1.255       .  A
C591        O593   1.271       .  A
C591        C613   1.466       .  S
C592        C626   1.464       .  S
C594        C737   1.466       .  S
Fe595       O611   2.015   1_455  S
Fe595       O601   2.121       .  S
Fe595       O608   2.094       .  S
Fe595       O600   2.033       .  S
Fe595       O606   1.946       .  S
Fe596      O2183   2.027   1_455  S
Fe596      O2187   2.116   1_455  S
Fe596       O607   2.017       .  S
Fe596       O612   2.133       .  S
Fe596       O606   1.941       .  S
Fe597      O2199   2.116   1_455  S
Fe597       O609   2.036   1_455  S
Fe597       O606   1.954       .  S
O598        C605   1.271       .  A
O599      Fe1388   2.027       .  S
O599        C613   1.257       .  A
O601        C604   1.288   1_455  A
O602        C614   1.265       .  A
O603      Fe1388   2.116       .  S
O603        C616   1.276       .  A
C604        O609   1.270       .  A
C604       C2242   1.464       .  S
C605        C638   1.466       .  S
O607        C610   1.262       .  A
O608        C610   1.283       .  A
O611       C2200   1.255       .  A
C613        O615   1.271       .  A
C614        C736   1.464       .  S
O615      Fe1389   2.116       .  S
C616       O1403   1.255       .  A
C616        C627   1.466       .  S
Fe617       O633   2.015       .  S
Fe617       O623   2.121       .  S
Fe617       O630   2.094       .  S
Fe617       O622   2.033       .  S
Fe617       O628   1.946       .  S
Fe618       O625   2.116       .  S
Fe618       O629   2.017       .  S
Fe618       O634   2.132       .  S
Fe618       O628   1.941       .  S
Fe619       O637   2.116       .  S
Fe619      O1416   2.035       .  S
Fe619       O631   2.036       .  S
Fe619       O620   2.102       .  S
Fe619       O628   1.954       .  S
O620        C627   1.271       .  A
O621        C635   1.257       .  A
O622        C627   1.254       .  A
O623        C626   1.288       .  A
O624      Fe2203   2.035       .  S
O624       C2220   1.265       .  A
O625        C638   1.276       .  A
C626        O631   1.270       .  A
O629        C632   1.262       .  A
O630        C632   1.283       .  A
C632        C654   1.455       .  S
O633        C638   1.255       .  A
O634        C636   1.289       .  A
C635        C657   1.466       .  S
C636       O1416   1.265       .  A
C636       C1330   1.464       .  S
Fe639       O655   2.015   1_556  S
Fe639       O645   2.121       .  S
Fe639       O652   2.094   1_556  S
Fe639       O644   2.033       .  S
Fe639       O650   1.946   1_556  S
Fe640       O643   2.027       .  S
Fe640       O647   2.116       .  S
Fe640       O651   2.017       .  S
Fe640       O656   2.133       .  S
Fe640       O650   1.941       .  S
Fe641       O659   2.116       .  S
Fe641      O1438   2.035       .  S
Fe641       O653   2.036   1_554  S
Fe641       O642   2.102   1_554  S
Fe641       O650   1.954       .  S
O642        C649   1.271       .  A
O643        C657   1.257       .  A
O644        C649   1.254       .  A
O645        C648   1.288       .  A
O646      Fe2225   2.035       .  S
O646       C2242   1.265       .  A
O647        C660   1.276       .  A
C648        O653   1.270       .  A
O651        C654   1.262       .  A
O652        C654   1.283       .  A
O655        C660   1.255       .  A
O656        C658   1.289       .  A
C657        O659   1.271       .  A
C658       O1438   1.265       .  A
C658       C1396   1.464       .  S
Fe661       O677   2.015       .  S
Fe661       O667   2.121       .  S
Fe661       O674   2.094       .  S
Fe661       O666   2.033       .  S
Fe661       O672   1.946       .  S
Fe662       O665   2.027       .  S
Fe662       O669   2.116       .  S
Fe662       O673   2.017       .  S
Fe662       O678   2.132       .  S
Fe662       O672   1.941       .  S
Fe663       O681   2.116       .  S
Fe663       O675   2.036       .  S
Fe663       O672   1.954       .  S
O665        C679   1.257       .  A
O666        C671   1.254       .  A
O667        C670   1.288       .  A
O669        C682   1.276       .  A
C670        O675   1.270       .  A
O673        C676   1.262       .  A
O674        C676   1.283       .  A
C676        C698   1.455       .  S
O677        C682   1.255       .  A
O678        C680   1.289       .  A
C679        O681   1.271       .  A
C679        C701   1.466       .  S
Fe683       O699   2.015       .  S
Fe683       O689   2.121       .  S
Fe683       O696   2.094       .  S
Fe683       O688   2.033       .  S
Fe683       O694   1.946       .  S
Fe684      O1479   2.027       .  S
Fe684       O691   2.116       .  S
Fe684       O695   2.017       .  S
Fe684       O700   2.133       .  S
Fe684       O694   1.941       .  S
Fe685       O703   2.116       .  S
Fe685       O697   2.036       .  S
Fe685       O694   1.954       .  S
O687      Fe2268   2.027   1_455  S
O687        C701   1.257       .  A
O688        C693   1.254       .  A
O689        C692   1.288       .  A
O691        C704   1.276       .  A
C692        O697   1.270       .  A
C692        C790   1.464       .  S
C693        C770   1.466       .  S
O695        C698   1.262       .  A
O696        C698   1.283       .  A
O699        C704   1.255       .  A
O700        C702   1.289       .  A
C701       O2287   1.271   1_455  A
O703       C1493   1.271       .  A
C704        C759   1.466       .  S
Fe705       O721   2.015       .  S
Fe705       O711   2.121       .  S
Fe705       O718   2.094       .  S
Fe705       O710   2.033       .  S
Fe705       O716   1.946       .  S
Fe706      O1501   2.027       .  S
Fe706       O713   2.116       .  S
Fe706       O717   2.017       .  S
Fe706       O722   2.133       .  S
Fe706       O716   1.941       .  S
Fe707       O725   2.116       .  S
Fe707       O712   2.035       .  S
Fe707       O719   2.036       .  S
Fe707       O708   2.102       .  S
Fe707       O716   1.954       .  S
O708        C715   1.271       .  A
O709      Fe2290   2.027   1_455  S
O709        C723   1.257       .  A
O710        C715   1.254       .  A
O711        C714   1.288       .  A
O712        C724   1.265       .  A
O713        C726   1.276       .  A
C714        O719   1.270       .  A
C714        C768   1.464       .  S
C715        C792   1.466       .  S
O717        C720   1.262       .  A
O718        C720   1.283       .  A
C720        C742   1.455       .  S
O721        C726   1.255       .  A
O722        C724   1.289       .  A
C723       O2309   1.271   1_455  A
C723        C745   1.466       .  S
O725       C1515   1.271       .  A
C726        C781   1.466       .  S
Fe727       O743   2.015       .  S
Fe727       O733   2.121       .  S
Fe727       O740   2.094       .  S
Fe727       O732   2.033       .  S
Fe727       O738   1.946       .  S
Fe728       O735   2.116       .  S
Fe728       O739   2.017       .  S
Fe728       O744   2.132       .  S
Fe728       O738   1.941       .  S
Fe729       O747   2.116       .  S
Fe729       O734   2.034       .  S
Fe729       O741   2.036       .  S
Fe729       O730   2.102       .  S
Fe729       O738   1.954       .  S
O730        C737   1.271       .  A
O731        C745   1.257       .  A
O732        C737   1.254       .  A
O733        C736   1.288       .  A
O734        C746   1.265       .  A
O735        C748   1.276       .  A
C736        O741   1.270       .  A
O739        C742   1.262       .  A
O740        C742   1.283       .  A
O743        C748   1.255       .  A
O744        C746   1.289       .  A
C746        C780   1.464       .  S
Fe749       O765   2.015       .  S
Fe749       O755   2.121       .  S
Fe749       O762   2.094       .  S
Fe749       O754   2.033       .  S
Fe749       O760   1.946       .  S
Fe750       O757   2.116   1_565  S
Fe750       O761   2.017       .  S
Fe750       O766   2.132       .  S
Fe750       O760   1.941       .  S
Fe751      O1033   2.116   1_565  S
Fe751       O756   2.034       .  S
Fe751      O1555   2.036   1_565  S
Fe751       O752   2.102       .  S
Fe751      O1552   1.954       .  S
O752        C759   1.271       .  A
O753        C767   1.257       .  A
O754       C2343   1.254       .  A
O755        C758   1.288   1_565  A
O756        C768   1.265       .  A
C758        O763   1.270       .  A
C759       O1546   1.254       .  A
O760      Fe2335   1.954       .  S
O761        C764   1.262       .  A
O762        C764   1.283       .  A
O763      Fe2335   2.036   1_545  S
C764        C786   1.455       .  S
O766       C2352   1.289       .  A
C767        O769   1.271       .  A
C767        C789   1.466       .  S
C768       O1558   1.289       .  A
O769      Fe2071   2.116       .  S
Fe771       O787   2.015       .  S
Fe771       O777   2.121       .  S
Fe771       O784   2.094       .  S
Fe771       O776   2.033       .  S
Fe771       O782   1.946       .  S
Fe772       O775   2.027       .  S
Fe772       O779   2.116       .  S
Fe772       O783   2.017       .  S
Fe772       O788   2.133       .  S
Fe772       O782   1.941       .  S
Fe773       O791   2.116       .  S
Fe773      O2362   2.035       .  S
Fe773       O785   2.036       .  S
Fe773      O2358   2.102       .  S
Fe773       O782   1.954       .  S
O774      Fe1565   2.102       .  S
O774        C781   1.271       .  A
O775        C789   1.257       .  A
O776       C2365   1.254       .  A
O777        C780   1.288       .  A
O778      Fe1565   2.035       .  S
O778        C790   1.265       .  A
O779        C792   1.276       .  A
C780        O785   1.270       .  A
C781       O1568   1.254       .  A
O783        C786   1.262       .  A
O784        C786   1.283       .  A
O787        C792   1.255       .  A
O788       C2374   1.289       .  A
C789        O791   1.271       .  A
C790       O1580   1.289       .  A
Fe793       O809   2.015   1_554  S
Fe793       O799   2.121       .  S
Fe793       O806   2.094   1_554  S
Fe793       O798   2.033       .  S
Fe793       O804   1.946   1_554  S
Fe794       O805   2.017       .  S
Fe794       O810   2.133       .  S
Fe794       O804   1.941       .  S
Fe795       O800   2.035       .  S
Fe795       O807   2.036   1_556  S
Fe795       O796   2.102   1_556  S
Fe795       O804   1.954       .  S
O796        C803   1.271       .  A
O797      Fe1586   2.027       .  S
O797        C811   1.257       .  A
O798        C803   1.254       .  A
O799        C802   1.288       .  A
O800        C812   1.265       .  A
O801      Fe1586   2.116       .  S
O801        C814   1.276       .  A
C802        O807   1.270       .  A
C803        C924   1.466       .  S
O805        C808   1.262       .  A
O806        C808   1.283       .  A
C808        C830   1.455       .  S
O810        C812   1.289       .  A
C811        O813   1.271       .  A
C811        C833   1.466       .  S
C812        C934   1.464       .  S
O813      Fe1587   2.116       .  S
C814       O1601   1.255       .  A
C814        C913   1.466       .  S
Fe815       O831   2.015       .  S
Fe815       O821   2.121       .  S
Fe815       O828   2.094       .  S
Fe815       O820   2.033       .  S
Fe815       O826   1.946       .  S
Fe816      O1083   2.027       .  S
Fe816       O823   2.116       .  S
Fe816       O827   2.017       .  S
Fe816       O832   2.132       .  S
Fe816       O826   1.941       .  S
Fe817      O1099   2.116       .  S
Fe817       O822   2.035       .  S
Fe817       O829   2.036       .  S
Fe817       O818   2.102       .  S
Fe817       O826   1.954       .  S
O818        C825   1.271       .  A
O819      Fe1344   2.027   1_545  S
O819        C833   1.257       .  A
O820        C825   1.254       .  A
O821        C824   1.288       .  A
O822        C834   1.265       .  A
O823       C1100   1.276       .  A
C824        O829   1.270       .  A
C824       C1230   1.464       .  S
C825        C946   1.466       .  S
O827        C830   1.262       .  A
O828        C830   1.283       .  A
O831       C1100   1.255       .  A
O832        C834   1.289       .  A
C833        O835   1.271       .  A
C834        C912   1.464       .  S
O835      Fe1345   2.116   1_545  S
C836       O1351   1.276       .  A
C836       O1359   1.255   1_545  A
C836        C935   1.466       .  S
Fe837       O853   2.015       .  S
Fe837       O843   2.121       .  S
Fe837       O850   2.094       .  S
Fe837       O842   2.033       .  S
Fe837       O848   1.946       .  S
Fe838       O841   2.027       .  S
Fe838       O845   2.116       .  S
Fe838       O849   2.017       .  S
Fe838       O854   2.133       .  S
Fe838       O848   1.941       .  S
Fe839       O857   2.116       .  S
Fe839      O1108   2.035       .  S
Fe839       O851   2.036       .  S
Fe839      O1104   2.102       .  S
Fe839       O848   1.954       .  S
O840      Fe1367   2.102       .  S
O840        C847   1.271       .  A
O841        C855   1.257       .  A
O842       C1111   1.254       .  A
O843        C846   1.288       .  A
O844      Fe1367   2.035       .  S
O844        C856   1.265       .  A
O845        C858   1.276       .  A
C846        O851   1.270       .  A
C846        C988   1.464       .  S
C847       O1370   1.254       .  A
C847       C1012   1.466   1_565  S
O849        C852   1.262       .  A
O850        C852   1.283       .  A
C852        C874   1.455       .  S
O853        C858   1.255       .  A
O854       C1120   1.289       .  A
C855        O857   1.271       .  A
C855        C877   1.466       .  S
C856       O1382   1.289       .  A
C856        C890   1.464   1_565  S
C858       C1001   1.466       .  S
Fe859       O875   2.015       .  S
Fe859       O865   2.121       .  S
Fe859       O872   2.094       .  S
Fe859       O864   2.033       .  S
Fe859       O870   1.946       .  S
Fe860       O871   2.017       .  S
Fe860       O876   2.133       .  S
Fe860       O870   1.941       .  S
Fe861      O1130   2.035       .  S
Fe861       O873   2.036       .  S
Fe861      O1126   2.102       .  S
Fe861       O870   1.954       .  S
O862      Fe1389   2.102       .  S
O862        C869   1.271       .  A
O863      Fe1652   2.027       .  S
O863        C877   1.257       .  A
O864       C1133   1.254       .  A
O865        C868   1.288       .  A
O866      Fe1389   2.035       .  S
O866        C878   1.265       .  A
O867      Fe1652   2.116       .  S
O867        C880   1.276       .  A
C868        O873   1.270       .  A
C869       O1392   1.254       .  A
C869        C902   1.466   1_565  S
O871        C874   1.262       .  A
O872        C874   1.283       .  A
O876       C1142   1.289       .  A
C877        O879   1.271       .  A
C878       O1404   1.289       .  A
C878       C1000   1.464   1_565  S
O879      Fe1653   2.116       .  S
C880       O1667   1.255       .  A
C880        C891   1.466       .  S
Fe881       O897   2.015       .  S
Fe881       O887   2.121       .  S
Fe881       O894   2.094       .  S
Fe881       O886   2.033       .  S
Fe881       O892   1.946       .  S
Fe882      O1413   2.027   1_545  S
Fe882       O889   2.116       .  S
Fe882       O893   2.017       .  S
Fe882       O898   2.132       .  S
Fe882       O892   1.941       .  S
Fe883       O901   2.116       .  S
Fe883      O1680   2.035       .  S
Fe883       O895   2.036       .  S
Fe883       O884   2.102       .  S
Fe883       O892   1.954       .  S
O884        C891   1.271       .  A
O885      Fe1146   2.027       .  S
O885        C899   1.257       .  A
O886        C891   1.254       .  A
O887        C890   1.288       .  A
O889        C902   1.276       .  A
C890        O895   1.270       .  A
O893        C896   1.262       .  A
O894        C896   1.283       .  A
C896        C918   1.455       .  S
O897        C902   1.255       .  A
O898        C900   1.289       .  A
C899       O1165   1.271       .  A
C899        C921   1.466       .  S
C900       O1680   1.265       .  A
C900       C1594   1.464       .  S
O901       C1427   1.271   1_545  A
Fe903       O919   2.015   1_556  S
Fe903       O909   2.121       .  S
Fe903       O916   2.094   1_556  S
Fe903       O908   2.033       .  S
Fe903       O914   1.946   1_556  S
Fe904       O907   2.027       .  S
Fe904       O911   2.116       .  S
Fe904       O915   2.017       .  S
Fe904       O920   2.133       .  S
Fe904       O914   1.941       .  S
Fe905       O923   2.116       .  S
Fe905      O1702   2.035       .  S
Fe905       O917   2.036   1_554  S
Fe905       O906   2.102   1_554  S
Fe905       O914   1.954       .  S
O906        C913   1.271       .  A
O907        C921   1.257       .  A
O908        C913   1.254       .  A
O909        C912   1.288       .  A
O911        C924   1.276       .  A
C912        O917   1.270       .  A
O915        C918   1.262       .  A
O916        C918   1.283       .  A
O919        C924   1.255       .  A
O920        C922   1.289       .  A
C921        O923   1.271       .  A
C922       O1702   1.265       .  A
C922       C1660   1.464       .  S
Fe925       O941   2.015       .  S
Fe925       O931   2.121       .  S
Fe925       O938   2.094       .  S
Fe925       O930   2.033       .  S
Fe925       O936   1.946       .  S
Fe926       O929   2.027       .  S
Fe926       O933   2.116       .  S
Fe926       O937   2.017       .  S
Fe926       O942   2.132       .  S
Fe926       O936   1.941       .  S
Fe927       O945   2.116       .  S
Fe927      O1460   2.035       .  S
Fe927       O939   2.036       .  S
Fe927      O1456   2.102       .  S
Fe927       O936   1.954       .  S
O928      Fe1191   2.102       .  S
O928       C1199   1.271       .  A
O929        C943   1.257       .  A
O930        C935   1.254       .  A
O931        C934   1.288       .  A
O932      Fe1191   2.035       .  S
O932       C1208   1.265       .  A
O933        C946   1.276       .  A
C934        O939   1.270       .  A
C935       O1456   1.271       .  A
O937        C940   1.262       .  A
O938        C940   1.283       .  A
C940        C962   1.455       .  S
O941        C946   1.255       .  A
O942        C944   1.289       .  A
C943        O945   1.271       .  A
C943        C965   1.466       .  S
C944       O1460   1.265       .  A
C944       C1550   1.464       .  S
Fe947       O963   2.015       .  S
Fe947       O953   2.121       .  S
Fe947       O960   2.094       .  S
Fe947       O952   2.033       .  S
Fe947       O958   1.946       .  S
Fe948      O1743   2.027       .  S
Fe948       O955   2.116       .  S
Fe948       O959   2.017       .  S
Fe948       O964   2.133       .  S
Fe948       O958   1.941       .  S
Fe949       O967   2.116       .  S
Fe949      O1482   2.035       .  S
Fe949       O961   2.036       .  S
Fe949      O1478   2.102       .  S
Fe949       O958   1.954       .  S
O950      Fe1213   2.102       .  S
O950       C1221   1.271       .  A
O951        C965   1.257       .  A
O952        C957   1.254       .  A
O953        C956   1.288       .  A
O954      Fe1213   2.035       .  S
O954       C1230   1.265       .  A
O955        C968   1.276       .  A
C956        O961   1.270       .  A
C956       C1054   1.464       .  S
C957       O1478   1.271       .  A
C957       C1034   1.466       .  S
O959        C962   1.262       .  A
O960        C962   1.283       .  A
O963        C968   1.255       .  A
O964        C966   1.289       .  A
C966       O1482   1.265       .  A
C966       C1352   1.464       .  S
O967       C1757   1.271       .  A
C968       C1023   1.466       .  S
Fe969       O985   2.015       .  S
Fe969       O975   2.121       .  S
Fe969       O982   2.094       .  S
Fe969       O974   2.033       .  S
Fe969       O980   1.946       .  S
Fe970      O1765   2.027       .  S
Fe970       O977   2.116       .  S
Fe970       O981   2.017       .  S
Fe970       O986   2.133       .  S
Fe970       O980   1.941       .  S
Fe971       O989   2.116       .  S
Fe971       O976   2.035       .  S
Fe971       O983   2.036       .  S
Fe971       O972   2.102       .  S
Fe971       O980   1.954       .  S
O972        C979   1.271       .  A
O973        C987   1.257       .  A
O974        C979   1.254       .  A
O975        C978   1.288       .  A
O976        C988   1.265       .  A
O977        C990   1.276       .  A
C978        O983   1.270       .  A
C978       C1032   1.464       .  S
C979       C1056   1.466       .  S
O981        C984   1.262       .  A
O982        C984   1.283       .  A
C984       C1006   1.455       .  S
O985        C990   1.255       .  A
O986        C988   1.289       .  A
C987       C1009   1.466       .  S
O989       C1779   1.271       .  A
C990       C1045   1.466       .  S
Fe991      O1007   2.015       .  S
Fe991       O997   2.121       .  S
Fe991      O1004   2.094       .  S
Fe991       O996   2.033       .  S
Fe991      O1002   1.946       .  S
Fe992      O1523   2.027   1_545  S
Fe992       O999   2.116       .  S
Fe992      O1003   2.017       .  S
Fe992      O1008   2.132       .  S
Fe992      O1002   1.941       .  S
Fe993      O1011   2.116       .  S
Fe993       O998   2.034       .  S
Fe993      O1005   2.036       .  S
Fe993       O994   2.102       .  S
Fe993      O1002   1.954       .  S
O994       C1001   1.271       .  A
O995      Fe1256   2.027       .  S
O995       C1009   1.257       .  A
O996       C1001   1.254       .  A
O997       C1000   1.288       .  A
O998       C1010   1.265       .  A
O999       C1012   1.276       .  A
C1000      O1005   1.270       .  A
O1003      C1006   1.262       .  A
O1004      C1006   1.283       .  A
O1007      C1012   1.255       .  A
O1008      C1010   1.289       .  A
C1009      O1275   1.271       .  A
C1010      C1044   1.464       .  S
O1011      C1537   1.271   1_545  A
Fe1013     O1029   2.015       .  S
Fe1013     O1019   2.121       .  S
Fe1013     O1026   2.094       .  S
Fe1013     O1018   2.033       .  S
Fe1013     O1024   1.946       .  S
Fe1014     O1281   2.027       .  S
Fe1014     O1021   2.116       .  S
Fe1014     O1025   2.017       .  S
Fe1014     O1030   2.132       .  S
Fe1014     O1024   1.941       .  S
Fe1015     O2089   2.116       .  S
Fe1015     O1020   2.034       .  S
Fe1015     O1819   2.036       .  S
Fe1015     O1016   2.102       .  S
Fe1015     O1816   1.954       .  S
O1016      C1023   1.271       .  A
O1017     Fe1542   2.027   1_545  S
O1017      C1031   1.257       .  A
O1019      C1022   1.288       .  A
O1020      C1032   1.265       .  A
O1021      C1298   1.276       .  A
C1022      O1027   1.270       .  A
C1022      C1208   1.464       .  S
C1023      O1810   1.254       .  A
O1025      C1028   1.262       .  A
O1026      C1028   1.283       .  A
C1028      C1050   1.455       .  S
O1029      C1298   1.255       .  A
C1031      O1033   1.271       .  A
C1031      C1053   1.466       .  S
C1032      O1822   1.289       .  A
C1034      O1549   1.276       .  A
C1034      O1557   1.255   1_545  A
Fe1035     O1051   2.015       .  S
Fe1035     O1041   2.121       .  S
Fe1035     O1048   2.094       .  S
Fe1035     O1040   2.033       .  S
Fe1035     O1046   1.946       .  S
Fe1036     O1039   2.027       .  S
Fe1036     O1043   2.116       .  S
Fe1036     O1047   2.017       .  S
Fe1036     O1052   2.133       .  S
Fe1036     O1046   1.941       .  S
Fe1037     O1055   2.116       .  S
Fe1037     O1049   2.036       .  S
Fe1037     O1046   1.954       .  S
O1038     Fe1829   2.102       .  S
O1038      C1045   1.271       .  A
O1039      C1053   1.257       .  A
O1041      C1044   1.288       .  A
O1042     Fe1829   2.035       .  S
O1042      C1054   1.265       .  A
O1043      C1056   1.276       .  A
C1044      O1049   1.270       .  A
C1045      O1832   1.254       .  A
O1047      C1050   1.262       .  A
O1048      C1050   1.283       .  A
O1051      C1056   1.255       .  A
C1053      O1055   1.271       .  A
C1054      O1844   1.289       .  A
Fe1057     O1073   2.015   1_554  S
Fe1057     O1063   2.121       .  S
Fe1057     O1070   2.094   1_554  S
Fe1057     O1062   2.033       .  S
Fe1057     O1068   1.946   1_554  S
Fe1058     O1069   2.017       .  S
Fe1058     O1074   2.133       .  S
Fe1058     O1068   1.941       .  S
Fe1059     O1064   2.035       .  S
Fe1059     O1071   2.036   1_556  S
Fe1059     O1060   2.102   1_556  S
Fe1059     O1068   1.954       .  S
O1060      C1067   1.271       .  A
O1061     Fe1850   2.027       .  S
O1061      C1075   1.257       .  A
O1062      C1067   1.254       .  A
O1063      C1066   1.288       .  A
O1064      C1076   1.265       .  A
O1065     Fe1850   2.116       .  S
O1065      C1078   1.276       .  A
C1066      O1071   1.270       .  A
C1067      C1188   1.466       .  S
O1069      C1072   1.262       .  A
O1070      C1072   1.283       .  A
C1072      C1094   1.455       .  S
O1074      C1076   1.289       .  A
C1075      O1077   1.271       .  A
C1075      C1097   1.466       .  S
C1076      C1198   1.464       .  S
O1077     Fe1851   2.116       .  S
C1078      O1865   1.255       .  A
C1078      C1177   1.466       .  S
Fe1079     O1095   2.015       .  S
Fe1079     O1085   2.121       .  S
Fe1079     O1092   2.094       .  S
Fe1079     O1084   2.033       .  S
Fe1079     O1090   1.946       .  S
Fe1080     O1347   2.027       .  S
Fe1080     O1087   2.116       .  S
Fe1080     O1091   2.017       .  S
Fe1080     O1096   2.132       .  S
Fe1080     O1090   1.941       .  S
Fe1081     O1363   2.116       .  S
Fe1081     O1086   2.035       .  S
Fe1081     O1093   2.036       .  S
Fe1081     O1082   2.102       .  S
Fe1081     O1090   1.954       .  S
O1082      C1089   1.271       .  A
O1083      C1097   1.257       .  A
O1084      C1089   1.254       .  A
O1085      C1088   1.288       .  A
O1086      C1098   1.265       .  A
O1087      C1364   1.276       .  A
C1088      O1093   1.270       .  A
C1088      C1494   1.464       .  S
C1089      C1210   1.466       .  S
O1091      C1094   1.262       .  A
O1092      C1094   1.283       .  A
O1095      C1364   1.255       .  A
O1096      C1098   1.289       .  A
C1097      O1099   1.271       .  A
C1098      C1176   1.464       .  S
C1100      C1199   1.466       .  S
Fe1101     O1117   2.015       .  S
Fe1101     O1107   2.121       .  S
Fe1101     O1114   2.094       .  S
Fe1101     O1106   2.033       .  S
Fe1101     O1112   1.946       .  S
Fe1102     O1105   2.027       .  S
Fe1102     O1109   2.116       .  S
Fe1102     O1113   2.017       .  S
Fe1102     O1118   2.133       .  S
Fe1102     O1112   1.941       .  S
Fe1103     O1121   2.116       .  S
Fe1103     O1372   2.035       .  S
Fe1103     O1115   2.036       .  S
Fe1103     O1368   2.102       .  S
Fe1103     O1112   1.954       .  S
O1104      C1111   1.271       .  A
O1105      C1119   1.257       .  A
O1106      C1375   1.254       .  A
O1107      C1110   1.288       .  A
O1108      C1120   1.265       .  A
O1109      C1122   1.276       .  A
C1110      O1115   1.270       .  A
C1110      C1252   1.464       .  S
C1111      C1276   1.466       .  S
O1113      C1116   1.262       .  A
O1114      C1116   1.283       .  A
C1116      C1138   1.455       .  S
O1117      C1122   1.255       .  A
O1118      C1384   1.289       .  A
C1119      O1121   1.271       .  A
C1119      C1141   1.466       .  S
C1120      C1154   1.464       .  S
C1122      C1265   1.466       .  S
Fe1123     O1139   2.015       .  S
Fe1123     O1129   2.121       .  S
Fe1123     O1136   2.094       .  S
Fe1123     O1128   2.033       .  S
Fe1123     O1134   1.946       .  S
Fe1124     O1135   2.017       .  S
Fe1124     O1140   2.133       .  S
Fe1124     O1134   1.941       .  S
Fe1125     O1394   2.035       .  S
Fe1125     O1137   2.036       .  S
Fe1125     O1390   2.102       .  S
Fe1125     O1134   1.954       .  S
O1126      C1133   1.271       .  A
O1127     Fe1916   2.027       .  S
O1127      C1141   1.257       .  A
O1128      C1397   1.254       .  A
O1129      C1132   1.288       .  A
O1130      C1142   1.265       .  A
O1131     Fe1916   2.116       .  S
O1131      C1144   1.276       .  A
C1132      O1137   1.270       .  A
C1133      C1166   1.466       .  S
O1135      C1138   1.262       .  A
O1136      C1138   1.283       .  A
O1140      C1406   1.289       .  A
C1141      O1143   1.271       .  A
C1142      C1264   1.464       .  S
O1143     Fe1917   2.116       .  S
C1144      O1931   1.255       .  A
C1144      C1155   1.466       .  S
Fe1145     O1161   2.015       .  S
Fe1145     O1151   2.121       .  S
Fe1145     O1158   2.094       .  S
Fe1145     O1150   2.033       .  S
Fe1145     O1156   1.946       .  S
Fe1146     O1153   2.116       .  S
Fe1146     O1157   2.017       .  S
Fe1146     O1162   2.132       .  S
Fe1146     O1156   1.941       .  S
Fe1147     O1165   2.116       .  S
Fe1147     O1944   2.035       .  S
Fe1147     O1159   2.036       .  S
Fe1147     O1148   2.102       .  S
Fe1147     O1156   1.954       .  S
O1148      C1155   1.271       .  A
O1149     Fe1410   2.027       .  S
O1149      C1163   1.257       .  A
O1150      C1155   1.254       .  A
O1151      C1154   1.288       .  A
O1153      C1166   1.276       .  A
C1154      O1159   1.270       .  A
O1157      C1160   1.262       .  A
O1158      C1160   1.283       .  A
C1160      C1182   1.455       .  S
O1161      C1166   1.255       .  A
O1162      C1164   1.289       .  A
C1163      O1429   1.271       .  A
C1163      C1185   1.466       .  S
C1164      O1944   1.265       .  A
C1164      C1858   1.464       .  S
Fe1167     O1183   2.015   1_556  S
Fe1167     O1173   2.121       .  S
Fe1167     O1180   2.094   1_556  S
Fe1167     O1172   2.033       .  S
Fe1167     O1178   1.946   1_556  S
Fe1168     O1171   2.027       .  S
Fe1168     O1175   2.116       .  S
Fe1168     O1179   2.017       .  S
Fe1168     O1184   2.133       .  S
Fe1168     O1178   1.941       .  S
Fe1169     O1187   2.116       .  S
Fe1169     O1966   2.035       .  S
Fe1169     O1181   2.036   1_554  S
Fe1169     O1170   2.102   1_554  S
Fe1169     O1178   1.954       .  S
O1170      C1177   1.271       .  A
O1171      C1185   1.257       .  A
O1172      C1177   1.254       .  A
O1173      C1176   1.288       .  A
O1175      C1188   1.276       .  A
C1176      O1181   1.270       .  A
O1179      C1182   1.262       .  A
O1180      C1182   1.283       .  A
O1183      C1188   1.255       .  A
O1184      C1186   1.289       .  A
C1185      O1187   1.271       .  A
C1186      O1966   1.265       .  A
C1186      C1924   1.464       .  S
Fe1189     O1205   2.015       .  S
Fe1189     O1195   2.121       .  S
Fe1189     O1202   2.094       .  S
Fe1189     O1194   2.033       .  S
Fe1189     O1200   1.946       .  S
Fe1190     O1193   2.027       .  S
Fe1190     O1197   2.116       .  S
Fe1190     O1201   2.017       .  S
Fe1190     O1206   2.132       .  S
Fe1190     O1200   1.941       .  S
Fe1191     O1209   2.116       .  S
Fe1191     O1203   2.036       .  S
Fe1191     O1200   1.954       .  S
O1192     Fe1455   2.102       .  S
O1192      C1463   1.271       .  A
O1193      C1207   1.257       .  A
O1194      C1199   1.254       .  A
O1195      C1198   1.288       .  A
O1196     Fe1455   2.035       .  S
O1196      C1472   1.265       .  A
O1197      C1210   1.276       .  A
C1198      O1203   1.270       .  A
O1201      C1204   1.262       .  A
O1202      C1204   1.283       .  A
C1204      C1226   1.455       .  S
O1205      C1210   1.255       .  A
O1206      C1208   1.289       .  A
C1207      O1209   1.271       .  A
C1207      C1229   1.466       .  S
Fe1211     O1227   2.015       .  S
Fe1211     O1217   2.121       .  S
Fe1211     O1224   2.094       .  S
Fe1211     O1216   2.033       .  S
Fe1211     O1222   1.946       .  S
Fe1212     O2007   2.027       .  S
Fe1212     O1219   2.116       .  S
Fe1212     O1223   2.017       .  S
Fe1212     O1228   2.133       .  S
Fe1212     O1222   1.941       .  S
Fe1213     O1231   2.116       .  S
Fe1213     O1225   2.036       .  S
Fe1213     O1222   1.954       .  S
O1214     Fe1477   2.102       .  S
O1214      C1485   1.271       .  A
O1215      C1229   1.257       .  A
O1216      C1221   1.254       .  A
O1217      C1220   1.288       .  A
O1218     Fe1477   2.035       .  S
O1218      C1494   1.265       .  A
O1219      C1232   1.276       .  A
C1220      O1225   1.270       .  A
C1220      C1318   1.464       .  S
C1221      C1298   1.466       .  S
O1223      C1226   1.262       .  A
O1224      C1226   1.283       .  A
O1227      C1232   1.255       .  A
O1228      C1230   1.289       .  A
O1231      C2021   1.271       .  A
C1232      C1287   1.466       .  S
Fe1233     O1249   2.015       .  S
Fe1233     O1239   2.121       .  S
Fe1233     O1246   2.094       .  S
Fe1233     O1238   2.033       .  S
Fe1233     O1244   1.946       .  S
Fe1234     O2029   2.027       .  S
Fe1234     O1241   2.116       .  S
Fe1234     O1245   2.017       .  S
Fe1234     O1250   2.133       .  S
Fe1234     O1244   1.941       .  S
Fe1235     O1253   2.116       .  S
Fe1235     O1240   2.035       .  S
Fe1235     O1247   2.036       .  S
Fe1235     O1236   2.102       .  S
Fe1235     O1244   1.954       .  S
O1236      C1243   1.271       .  A
O1237      C1251   1.257       .  A
O1238      C1243   1.254       .  A
O1239      C1242   1.288       .  A
O1240      C1252   1.265       .  A
O1241      C1254   1.276       .  A
C1242      O1247   1.270       .  A
C1242      C1296   1.464       .  S
C1243      C1320   1.466       .  S
O1245      C1248   1.262       .  A
O1246      C1248   1.283       .  A
C1248      C1270   1.455       .  S
O1249      C1254   1.255       .  A
O1250      C1252   1.289       .  A
C1251      C1273   1.466       .  S
O1253      C2043   1.271       .  A
C1254      C1309   1.466       .  S
Fe1255     O1271   2.015       .  S
Fe1255     O1261   2.121       .  S
Fe1255     O1268   2.094       .  S
Fe1255     O1260   2.033       .  S
Fe1255     O1266   1.946       .  S
Fe1256     O1263   2.116       .  S
Fe1256     O1267   2.017       .  S
Fe1256     O1272   2.132       .  S
Fe1256     O1266   1.941       .  S
Fe1257     O1275   2.116       .  S
Fe1257     O1262   2.034       .  S
Fe1257     O1269   2.036       .  S
Fe1257     O1258   2.102       .  S
Fe1257     O1266   1.954       .  S
O1258      C1265   1.271       .  A
O1259     Fe1520   2.027       .  S
O1259      C1273   1.257       .  A
O1260      C1265   1.254       .  A
O1261      C1264   1.288       .  A
O1262      C1274   1.265       .  A
O1263      C1276   1.276       .  A
C1264      O1269   1.270       .  A
O1267      C1270   1.262       .  A
O1268      C1270   1.283       .  A
O1271      C1276   1.255       .  A
O1272      C1274   1.289       .  A
C1273      O1539   1.271       .  A
C1274      C1308   1.464       .  S
Fe1277     O1293   2.015       .  S
Fe1277     O1283   2.121       .  S
Fe1277     O1290   2.094       .  S
Fe1277     O1282   2.033       .  S
Fe1277     O1288   1.946       .  S
Fe1278     O1545   2.027       .  S
Fe1278     O1285   2.116       .  S
Fe1278     O1289   2.017       .  S
Fe1278     O1294   2.132       .  S
Fe1278     O1288   1.941       .  S
Fe1279     O2353   2.116       .  S
Fe1279     O1284   2.034       .  S
Fe1279     O2083   2.036       .  S
Fe1279     O1280   2.102       .  S
Fe1279     O2080   1.954       .  S
O1280      C1287   1.271       .  A
O1281      C1295   1.257       .  A
O1283      C1286   1.288       .  A
O1284      C1296   1.265       .  A
O1285      C1562   1.276       .  A
C1286      O1291   1.270       .  A
C1286      C1472   1.464       .  S
C1287      O2074   1.254       .  A
O1289      C1292   1.262       .  A
O1290      C1292   1.283       .  A
C1292      C1314   1.455       .  S
O1293      C1562   1.255       .  A
C1295      O1297   1.271       .  A
C1295      C1317   1.466       .  S
C1296      O2086   1.289       .  A
Fe1299     O1315   2.015       .  S
Fe1299     O1305   2.121       .  S
Fe1299     O1312   2.094       .  S
Fe1299     O1304   2.033       .  S
Fe1299     O1310   1.946       .  S
Fe1300     O1303   2.027       .  S
Fe1300     O1307   2.116       .  S
Fe1300     O1311   2.017       .  S
Fe1300     O1316   2.133       .  S
Fe1300     O1310   1.941       .  S
Fe1301     O1319   2.116       .  S
Fe1301     O1313   2.036       .  S
Fe1301     O1310   1.954       .  S
O1302     Fe2093   2.102       .  S
O1302      C1309   1.271       .  A
O1303      C1317   1.257       .  A
O1305      C1308   1.288       .  A
O1306     Fe2093   2.035       .  S
O1306      C1318   1.265       .  A
O1307      C1320   1.276       .  A
C1308      O1313   1.270       .  A
C1309      O2096   1.254       .  A
O1311      C1314   1.262       .  A
O1312      C1314   1.283       .  A
O1315      C1320   1.255       .  A
C1317      O1319   1.271       .  A
C1318      O2108   1.289       .  A
Fe1321     O1337   2.015   1_554  S
Fe1321     O1327   2.121       .  S
Fe1321     O1334   2.094   1_554  S
Fe1321     O1326   2.033       .  S
Fe1321     O1332   1.946   1_554  S
Fe1322     O1333   2.017       .  S
Fe1322     O1338   2.133       .  S
Fe1322     O1332   1.941       .  S
Fe1323     O1328   2.035       .  S
Fe1323     O1335   2.036   1_556  S
Fe1323     O1324   2.102   1_556  S
Fe1323     O1332   1.954       .  S
O1324      C1331   1.271       .  A
O1325     Fe2114   2.027       .  S
O1325      C1339   1.257       .  A
O1326      C1331   1.254       .  A
O1327      C1330   1.288       .  A
O1328      C1340   1.265       .  A
O1329     Fe2114   2.116       .  S
O1329      C1342   1.276       .  A
C1330      O1335   1.270       .  A
C1331      C1452   1.466       .  S
O1333      C1336   1.262       .  A
O1334      C1336   1.283       .  A
C1336      C1358   1.455       .  S
O1338      C1340   1.289       .  A
C1339      O1341   1.271       .  A
C1339      C1361   1.466       .  S
C1340      C1462   1.464       .  S
O1341     Fe2115   2.116       .  S
C1342      O2129   1.255       .  A
C1342      C1441   1.466       .  S
Fe1343     O1359   2.015       .  S
Fe1343     O1349   2.121       .  S
Fe1343     O1356   2.094       .  S
Fe1343     O1348   2.033       .  S
Fe1343     O1354   1.946       .  S
Fe1344     O1351   2.116   1_565  S
Fe1344     O1355   2.017       .  S
Fe1344     O1360   2.132       .  S
Fe1344     O1354   1.941       .  S
Fe1345     O1350   2.035       .  S
Fe1345     O1357   2.036   1_565  S
Fe1345     O1346   2.102       .  S
Fe1345     O1354   1.954       .  S
O1346      C1353   1.271       .  A
O1347      C1361   1.257       .  A
O1348      C1353   1.254       .  A
O1349      C1352   1.288   1_565  A
O1350      C1362   1.265       .  A
C1352      O1357   1.270       .  A
C1353      C1474   1.466       .  S
O1355      C1358   1.262       .  A
O1356      C1358   1.283       .  A
O1360      C1362   1.289       .  A
C1361      O1363   1.271       .  A
C1362      C1440   1.464       .  S
C1364      C1463   1.466       .  S
Fe1365     O1381   2.015       .  S
Fe1365     O1371   2.121       .  S
Fe1365     O1378   2.094       .  S
Fe1365     O1370   2.033       .  S
Fe1365     O1376   1.946       .  S
Fe1366     O1369   2.027       .  S
Fe1366     O1373   2.116       .  S
Fe1366     O1377   2.017       .  S
Fe1366     O1382   2.133       .  S
Fe1366     O1376   1.941       .  S
Fe1367     O1385   2.116       .  S
Fe1367     O1379   2.036       .  S
Fe1367     O1376   1.954       .  S
O1368      C1375   1.271       .  A
O1369      C1383   1.257       .  A
O1371      C1374   1.288       .  A
O1372      C1384   1.265       .  A
O1373      C1386   1.276       .  A
C1374      O1379   1.270       .  A
C1374      C1516   1.464       .  S
C1375      C1540   1.466       .  S
O1377      C1380   1.262       .  A
O1378      C1380   1.283       .  A
C1380      C1402   1.455       .  S
O1381      C1386   1.255       .  A
C1383      O1385   1.271       .  A
C1383      C1405   1.466       .  S
C1384      C1418   1.464       .  S
C1386      C1529   1.466       .  S
Fe1387     O1403   2.015       .  S
Fe1387     O1393   2.121       .  S
Fe1387     O1400   2.094       .  S
Fe1387     O1392   2.033       .  S
Fe1387     O1398   1.946       .  S
Fe1388     O1399   2.017       .  S
Fe1388     O1404   2.133       .  S
Fe1388     O1398   1.941       .  S
Fe1389     O1401   2.036       .  S
Fe1389     O1398   1.954       .  S
O1390      C1397   1.271       .  A
O1391     Fe2180   2.027       .  S
O1391      C1405   1.257       .  A
O1393      C1396   1.288       .  A
O1394      C1406   1.265       .  A
O1395     Fe2180   2.116       .  S
O1395      C1408   1.276       .  A
C1396      O1401   1.270       .  A
C1397      C1430   1.466       .  S
O1399      C1402   1.262       .  A
O1400      C1402   1.283       .  A
C1405      O1407   1.271       .  A
C1406      C1528   1.464       .  S
O1407     Fe2181   2.116       .  S
C1408      O2195   1.255       .  A
C1408      C1419   1.466       .  S
Fe1409     O1425   2.015       .  S
Fe1409     O1415   2.121       .  S
Fe1409     O1422   2.094       .  S
Fe1409     O1414   2.033       .  S
Fe1409     O1420   1.946       .  S
Fe1410     O1417   2.116       .  S
Fe1410     O1421   2.017       .  S
Fe1410     O1426   2.132       .  S
Fe1410     O1420   1.941       .  S
Fe1411     O1429   2.116       .  S
Fe1411     O2208   2.035       .  S
Fe1411     O1423   2.036       .  S
Fe1411     O1412   2.102       .  S
Fe1411     O1420   1.954       .  S
O1412      C1419   1.271       .  A
O1413      C1427   1.257       .  A
O1414      C1419   1.254       .  A
O1415      C1418   1.288       .  A
O1417      C1430   1.276       .  A
C1418      O1423   1.270       .  A
O1421      C1424   1.262       .  A
O1422      C1424   1.283       .  A
C1424      C1446   1.455       .  S
O1425      C1430   1.255       .  A
O1426      C1428   1.289       .  A
C1427      C1449   1.466       .  S
C1428      O2208   1.265       .  A
C1428      C2122   1.464       .  S
Fe1431     O1447   2.015   1_556  S
Fe1431     O1437   2.121       .  S
Fe1431     O1444   2.094   1_556  S
Fe1431     O1436   2.033       .  S
Fe1431     O1442   1.946   1_556  S
Fe1432     O1435   2.027       .  S
Fe1432     O1439   2.116       .  S
Fe1432     O1443   2.017       .  S
Fe1432     O1448   2.133       .  S
Fe1432     O1442   1.941       .  S
Fe1433     O1451   2.116       .  S
Fe1433     O2230   2.035       .  S
Fe1433     O1445   2.036   1_554  S
Fe1433     O1434   2.102   1_554  S
Fe1433     O1442   1.954       .  S
O1434      C1441   1.271       .  A
O1435      C1449   1.257       .  A
O1436      C1441   1.254       .  A
O1437      C1440   1.288       .  A
O1439      C1452   1.276       .  A
C1440      O1445   1.270       .  A
O1443      C1446   1.262       .  A
O1444      C1446   1.283       .  A
O1447      C1452   1.255       .  A
O1448      C1450   1.289       .  A
C1449      O1451   1.271       .  A
C1450      O2230   1.265       .  A
C1450      C2188   1.464       .  S
Fe1453     O1469   2.015       .  S
Fe1453     O1459   2.121       .  S
Fe1453     O1466   2.094       .  S
Fe1453     O1458   2.033       .  S
Fe1453     O1464   1.946       .  S
Fe1454     O1457   2.027       .  S
Fe1454     O1461   2.116       .  S
Fe1454     O1465   2.017       .  S
Fe1454     O1470   2.132       .  S
Fe1454     O1464   1.941       .  S
Fe1455     O1473   2.116       .  S
Fe1455     O1467   2.036       .  S
Fe1455     O1464   1.954       .  S
O1457      C1471   1.257       .  A
O1458      C1463   1.254       .  A
O1459      C1462   1.288       .  A
O1461      C1474   1.276       .  A
C1462      O1467   1.270       .  A
O1465      C1468   1.262       .  A
O1466      C1468   1.283       .  A
C1468      C1490   1.455       .  S
O1469      C1474   1.255       .  A
O1470      C1472   1.289       .  A
C1471      O1473   1.271       .  A
C1471      C1493   1.466       .  S
Fe1475     O1491   2.015       .  S
Fe1475     O1481   2.121       .  S
Fe1475     O1488   2.094       .  S
Fe1475     O1480   2.033       .  S
Fe1475     O1486   1.946       .  S
Fe1476     O2271   2.027       .  S
Fe1476     O1483   2.116       .  S
Fe1476     O1487   2.017       .  S
Fe1476     O1492   2.133       .  S
Fe1476     O1486   1.941       .  S
Fe1477     O1495   2.116       .  S
Fe1477     O1489   2.036       .  S
Fe1477     O1486   1.954       .  S
O1479      C1493   1.257       .  A
O1480      C1485   1.254       .  A
O1481      C1484   1.288       .  A
O1483      C1496   1.276       .  A
C1484      O1489   1.270       .  A
C1484      C1582   1.464       .  S
C1485      C1562   1.466       .  S
O1487      C1490   1.262       .  A
O1488      C1490   1.283       .  A
O1491      C1496   1.255       .  A
O1492      C1494   1.289       .  A
O1495      C2285   1.271       .  A
C1496      C1551   1.466       .  S
Fe1497     O1513   2.015       .  S
Fe1497     O1503   2.121       .  S
Fe1497     O1510   2.094       .  S
Fe1497     O1502   2.033       .  S
Fe1497     O1508   1.946       .  S
Fe1498     O2293   2.027       .  S
Fe1498     O1505   2.116       .  S
Fe1498     O1509   2.017       .  S
Fe1498     O1514   2.133       .  S
Fe1498     O1508   1.941       .  S
Fe1499     O1517   2.116       .  S
Fe1499     O1504   2.035       .  S
Fe1499     O1511   2.036       .  S
Fe1499     O1500   2.102       .  S
Fe1499     O1508   1.954       .  S
O1500      C1507   1.271       .  A
O1501      C1515   1.257       .  A
O1502      C1507   1.254       .  A
O1503      C1506   1.288       .  A
O1504      C1516   1.265       .  A
O1505      C1518   1.276       .  A
C1506      O1511   1.270       .  A
C1506      C1560   1.464       .  S
C1507      C1584   1.466       .  S
O1509      C1512   1.262       .  A
O1510      C1512   1.283       .  A
C1512      C1534   1.455       .  S
O1513      C1518   1.255       .  A
O1514      C1516   1.289       .  A
C1515      C1537   1.466       .  S
O1517      C2307   1.271       .  A
C1518      C1573   1.466       .  S
Fe1519     O1535   2.015       .  S
Fe1519     O1525   2.121       .  S
Fe1519     O1532   2.094       .  S
Fe1519     O1524   2.033       .  S
Fe1519     O1530   1.946       .  S
Fe1520     O1527   2.116       .  S
Fe1520     O1531   2.017       .  S
Fe1520     O1536   2.132       .  S
Fe1520     O1530   1.941       .  S
Fe1521     O1539   2.116       .  S
Fe1521     O1526   2.034       .  S
Fe1521     O1533   2.036       .  S
Fe1521     O1522   2.102       .  S
Fe1521     O1530   1.954       .  S
O1522      C1529   1.271       .  A
O1523      C1537   1.257       .  A
O1524      C1529   1.254       .  A
O1525      C1528   1.288       .  A
O1526      C1538   1.265       .  A
O1527      C1540   1.276       .  A
C1528      O1533   1.270       .  A
O1531      C1534   1.262       .  A
O1532      C1534   1.283       .  A
O1535      C1540   1.255       .  A
O1536      C1538   1.289       .  A
C1538      C1572   1.464       .  S
Fe1541     O1557   2.015       .  S
Fe1541     O1547   2.121       .  S
Fe1541     O1554   2.094       .  S
Fe1541     O1546   2.033       .  S
Fe1541     O1552   1.946       .  S
Fe1542     O1549   2.116   1_565  S
Fe1542     O1553   2.017       .  S
Fe1542     O1558   2.132       .  S
Fe1542     O1552   1.941       .  S
Fe1543     O1825   2.116   1_565  S
Fe1543     O1548   2.034       .  S
Fe1543     O2347   2.036   1_565  S
Fe1543     O1544   2.102       .  S
Fe1543     O2344   1.954       .  S
O1544      C1551   1.271       .  A
O1545      C1559   1.257       .  A
O1547      C1550   1.288   1_565  A
O1548      C1560   1.265       .  A
C1550      O1555   1.270       .  A
C1551      O2338   1.254       .  A
O1553      C1556   1.262       .  A
O1554      C1556   1.283       .  A
C1556      C1578   1.455       .  S
C1559      O1561   1.271       .  A
C1559      C1581   1.466       .  S
C1560      O2350   1.289       .  A
Fe1563     O1579   2.015       .  S
Fe1563     O1569   2.121       .  S
Fe1563     O1576   2.094       .  S
Fe1563     O1568   2.033       .  S
Fe1563     O1574   1.946       .  S
Fe1564     O1567   2.027       .  S
Fe1564     O1571   2.116       .  S
Fe1564     O1575   2.017       .  S
Fe1564     O1580   2.133       .  S
Fe1564     O1574   1.941       .  S
Fe1565     O1583   2.116       .  S
Fe1565     O1577   2.036       .  S
Fe1565     O1574   1.954       .  S
O1566     Fe2357   2.102       .  S
O1566      C1573   1.271       .  A
O1567      C1581   1.257       .  A
O1569      C1572   1.288       .  A
O1570     Fe2357   2.035       .  S
O1570      C1582   1.265       .  A
O1571      C1584   1.276       .  A
C1572      O1577   1.270       .  A
C1573      O2360   1.254       .  A
O1575      C1578   1.262       .  A
O1576      C1578   1.283       .  A
O1579      C1584   1.255       .  A
C1581      O1583   1.271       .  A
C1582      O2372   1.289       .  A
Fe1585     O1601   2.015   1_554  S
Fe1585     O1591   2.121       .  S
Fe1585     O1598   2.094   1_554  S
Fe1585     O1590   2.033       .  S
Fe1585     O1596   1.946   1_554  S
Fe1586     O1597   2.017       .  S
Fe1586     O1602   2.133       .  S
Fe1586     O1596   1.941       .  S
Fe1587     O1592   2.035       .  S
Fe1587     O1599   2.036   1_556  S
Fe1587     O1588   2.102   1_556  S
Fe1587     O1596   1.954       .  S
O1588      C1595   1.271       .  A
O1589      C1603   1.257       .  A
O1590      C1595   1.254       .  A
O1591      C1594   1.288       .  A
O1592      C1604   1.265       .  A
O1593      C1606   1.276       .  A
C1594      O1599   1.270       .  A
C1595      C1716   1.466       .  S
O1597      C1600   1.262       .  A
O1598      C1600   1.283       .  A
C1600      C1622   1.455       .  S
O1602      C1604   1.289       .  A
C1603      O1605   1.271       .  A
C1603      C1625   1.466       .  S
C1604      C1726   1.464       .  S
C1606      C1705   1.466       .  S
Fe1607     O1623   2.015       .  S
Fe1607     O1613   2.121       .  S
Fe1607     O1620   2.094       .  S
Fe1607     O1612   2.033       .  S
Fe1607     O1618   1.946       .  S
Fe1608     O1875   2.027       .  S
Fe1608     O1615   2.116       .  S
Fe1608     O1619   2.017       .  S
Fe1608     O1624   2.132       .  S
Fe1608     O1618   1.941       .  S
Fe1609     O1891   2.116       .  S
Fe1609     O1614   2.035       .  S
Fe1609     O1621   2.036       .  S
Fe1609     O1610   2.102       .  S
Fe1609     O1618   1.954       .  S
O1610      C1617   1.271       .  A
O1611     Fe2136   2.027   1_545  S
O1611      C1625   1.257       .  A
O1612      C1617   1.254       .  A
O1613      C1616   1.288       .  A
O1614      C1626   1.265       .  A
O1615      C1892   1.276       .  A
C1616      O1621   1.270       .  A
C1616      C2022   1.464       .  S
C1617      C1738   1.466       .  S
O1619      C1622   1.262       .  A
O1620      C1622   1.283       .  A
O1623      C1892   1.255       .  A
O1624      C1626   1.289       .  A
C1625      O1627   1.271       .  A
C1626      C1704   1.464       .  S
O1627     Fe2137   2.116   1_545  S
C1628      O2143   1.276       .  A
C1628      O2151   1.255   1_545  A
C1628      C1727   1.466       .  S
Fe1629     O1645   2.015       .  S
Fe1629     O1635   2.121       .  S
Fe1629     O1642   2.094       .  S
Fe1629     O1634   2.033       .  S
Fe1629     O1640   1.946       .  S
Fe1630     O1633   2.027       .  S
Fe1630     O1637   2.116       .  S
Fe1630     O1641   2.017       .  S
Fe1630     O1646   2.133       .  S
Fe1630     O1640   1.941       .  S
Fe1631     O1649   2.116       .  S
Fe1631     O1900   2.035       .  S
Fe1631     O1643   2.036       .  S
Fe1631     O1896   2.102       .  S
Fe1631     O1640   1.954       .  S
O1632     Fe2159   2.102       .  S
O1632      C1639   1.271       .  A
O1633      C1647   1.257       .  A
O1634      C1903   1.254       .  A
O1635      C1638   1.288       .  A
O1636     Fe2159   2.035       .  S
O1636      C1648   1.265       .  A
O1637      C1650   1.276       .  A
C1638      O1643   1.270       .  A
C1638      C1780   1.464       .  S
C1639      O2162   1.254       .  A
C1639      C1804   1.466   1_565  S
O1641      C1644   1.262       .  A
O1642      C1644   1.283       .  A
C1644      C1666   1.455       .  S
O1645      C1650   1.255       .  A
O1646      C1912   1.289       .  A
C1647      O1649   1.271       .  A
C1647      C1669   1.466       .  S
C1648      O2174   1.289       .  A
C1648      C1682   1.464   1_565  S
C1650      C1793   1.466       .  S
Fe1651     O1667   2.015       .  S
Fe1651     O1657   2.121       .  S
Fe1651     O1664   2.094       .  S
Fe1651     O1656   2.033       .  S
Fe1651     O1662   1.946       .  S
Fe1652     O1663   2.017       .  S
Fe1652     O1668   2.133       .  S
Fe1652     O1662   1.941       .  S
Fe1653     O1922   2.035       .  S
Fe1653     O1665   2.036       .  S
Fe1653     O1918   2.102       .  S
Fe1653     O1662   1.954       .  S
O1654     Fe2181   2.102       .  S
O1654      C1661   1.271       .  A
O1655      C1669   1.257       .  A
O1656      C1925   1.254       .  A
O1657      C1660   1.288       .  A
O1658     Fe2181   2.035       .  S
O1658      C1670   1.265       .  A
O1659      C1672   1.276       .  A
C1660      O1665   1.270       .  A
C1661      O2184   1.254       .  A
C1661      C1694   1.466   1_565  S
O1663      C1666   1.262       .  A
O1664      C1666   1.283       .  A
O1668      C1934   1.289       .  A
C1669      O1671   1.271       .  A
C1670      O2196   1.289       .  A
C1670      C1792   1.464   1_565  S
C1672      C1683   1.466       .  S
Fe1673     O1689   2.015       .  S
Fe1673     O1679   2.121       .  S
Fe1673     O1686   2.094       .  S
Fe1673     O1678   2.033       .  S
Fe1673     O1684   1.946       .  S
Fe1674     O2205   2.027   1_545  S
Fe1674     O1681   2.116       .  S
Fe1674     O1685   2.017       .  S
Fe1674     O1690   2.132       .  S
Fe1674     O1684   1.941       .  S
Fe1675     O1693   2.116       .  S
Fe1675     O1687   2.036       .  S
Fe1675     O1676   2.102       .  S
Fe1675     O1684   1.954       .  S
O1676      C1683   1.271       .  A
O1677     Fe1938   2.027       .  S
O1677      C1691   1.257       .  A
O1678      C1683   1.254       .  A
O1679      C1682   1.288       .  A
O1681      C1694   1.276       .  A
C1682      O1687   1.270       .  A
O1685      C1688   1.262       .  A
O1686      C1688   1.283       .  A
C1688      C1710   1.455       .  S
O1689      C1694   1.255       .  A
O1690      C1692   1.289       .  A
C1691      O1957   1.271       .  A
C1691      C1713   1.466       .  S
O1693      C2219   1.271   1_545  A
Fe1695     O1711   2.015   1_556  S
Fe1695     O1701   2.121       .  S
Fe1695     O1708   2.094   1_556  S
Fe1695     O1700   2.033       .  S
Fe1695     O1706   1.946   1_556  S
Fe1696     O1699   2.027       .  S
Fe1696     O1703   2.116       .  S
Fe1696     O1707   2.017       .  S
Fe1696     O1712   2.133       .  S
Fe1696     O1706   1.941       .  S
Fe1697     O1715   2.116       .  S
Fe1697     O1709   2.036   1_554  S
Fe1697     O1698   2.102   1_554  S
Fe1697     O1706   1.954       .  S
O1698      C1705   1.271       .  A
O1699      C1713   1.257       .  A
O1700      C1705   1.254       .  A
O1701      C1704   1.288       .  A
O1703      C1716   1.276       .  A
C1704      O1709   1.270       .  A
O1707      C1710   1.262       .  A
O1708      C1710   1.283       .  A
O1711      C1716   1.255       .  A
O1712      C1714   1.289       .  A
C1713      O1715   1.271       .  A
Fe1717     O1733   2.015       .  S
Fe1717     O1723   2.121       .  S
Fe1717     O1730   2.094       .  S
Fe1717     O1722   2.033       .  S
Fe1717     O1728   1.946       .  S
Fe1718     O1721   2.027       .  S
Fe1718     O1725   2.116       .  S
Fe1718     O1729   2.017       .  S
Fe1718     O1734   2.132       .  S
Fe1718     O1728   1.941       .  S
Fe1719     O1737   2.116       .  S
Fe1719     O2252   2.035       .  S
Fe1719     O1731   2.036       .  S
Fe1719     O2248   2.102       .  S
Fe1719     O1728   1.954       .  S
O1720     Fe1983   2.102       .  S
O1720      C1991   1.271       .  A
O1721      C1735   1.257       .  A
O1722      C1727   1.254       .  A
O1723      C1726   1.288       .  A
O1724     Fe1983   2.035       .  S
O1724      C2000   1.265       .  A
O1725      C1738   1.276       .  A
C1726      O1731   1.270       .  A
C1727      O2248   1.271       .  A
O1729      C1732   1.262       .  A
O1730      C1732   1.283       .  A
C1732      C1754   1.455       .  S
O1733      C1738   1.255       .  A
O1734      C1736   1.289       .  A
C1735      O1737   1.271       .  A
C1735      C1757   1.466       .  S
C1736      O2252   1.265       .  A
C1736      C2342   1.464       .  S
Fe1739     O1755   2.015       .  S
Fe1739     O1745   2.121       .  S
Fe1739     O1752   2.094       .  S
Fe1739     O1744   2.033       .  S
Fe1739     O1750   1.946       .  S
Fe1740     O1747   2.116       .  S
Fe1740     O1751   2.017       .  S
Fe1740     O1756   2.133       .  S
Fe1740     O1750   1.941       .  S
Fe1741     O1759   2.116       .  S
Fe1741     O2274   2.035       .  S
Fe1741     O1753   2.036       .  S
Fe1741     O2270   2.102       .  S
Fe1741     O1750   1.954       .  S
O1742     Fe2005   2.102       .  S
O1742      C2013   1.271       .  A
O1743      C1757   1.257       .  A
O1744      C1749   1.254       .  A
O1745      C1748   1.288       .  A
O1746     Fe2005   2.035       .  S
O1746      C2022   1.265       .  A
O1747      C1760   1.276       .  A
C1748      O1753   1.270       .  A
C1748      C1846   1.464   1_655  S
C1749      O2270   1.271       .  A
C1749      C1826   1.466       .  S
O1751      C1754   1.262       .  A
O1752      C1754   1.283       .  A
O1755      C1760   1.255       .  A
O1756      C1758   1.289       .  A
C1758      O2274   1.265       .  A
C1758      C2144   1.464       .  S
C1760      C1815   1.466   1_655  S
Fe1761     O1777   2.015       .  S
Fe1761     O1767   2.121       .  S
Fe1761     O1774   2.094       .  S
Fe1761     O1766   2.033       .  S
Fe1761     O1772   1.946       .  S
Fe1762     O1769   2.116       .  S
Fe1762     O1773   2.017       .  S
Fe1762     O1778   2.133       .  S
Fe1762     O1772   1.941       .  S
Fe1763     O1781   2.116       .  S
Fe1763     O1768   2.035       .  S
Fe1763     O1775   2.036       .  S
Fe1763     O1764   2.102       .  S
Fe1763     O1772   1.954       .  S
O1764      C1771   1.271       .  A
O1765      C1779   1.257       .  A
O1766      C1771   1.254       .  A
O1767      C1770   1.288       .  A
O1768      C1780   1.265       .  A
O1769      C1782   1.276       .  A
C1770      O1775   1.270       .  A
C1770      C1824   1.464   1_655  S
C1771      C1848   1.466       .  S
O1773      C1776   1.262       .  A
O1774      C1776   1.283       .  A
C1776      C1798   1.455       .  S
O1777      C1782   1.255       .  A
O1778      C1780   1.289       .  A
C1779      C1801   1.466       .  S
C1782      C1837   1.466   1_655  S
Fe1783     O1799   2.015       .  S
Fe1783     O1789   2.121       .  S
Fe1783     O1796   2.094       .  S
Fe1783     O1788   2.033       .  S
Fe1783     O1794   1.946       .  S
Fe1784     O2315   2.027   1_545  S
Fe1784     O1791   2.116       .  S
Fe1784     O1795   2.017       .  S
Fe1784     O1800   2.132       .  S
Fe1784     O1794   1.941       .  S
Fe1785     O1803   2.116       .  S
Fe1785     O1790   2.034       .  S
Fe1785     O1797   2.036       .  S
Fe1785     O1786   2.102       .  S
Fe1785     O1794   1.954       .  S
O1786      C1793   1.271       .  A
O1787     Fe2048   2.027       .  S
O1787      C1801   1.257       .  A
O1788      C1793   1.254       .  A
O1789      C1792   1.288       .  A
O1790      C1802   1.265       .  A
O1791      C1804   1.276       .  A
C1792      O1797   1.270       .  A
O1795      C1798   1.262       .  A
O1796      C1798   1.283       .  A
O1799      C1804   1.255       .  A
O1800      C1802   1.289       .  A
C1801      O2067   1.271       .  A
C1802      C1836   1.464       .  S
O1803      C2329   1.271   1_545  A
Fe1805     O1821   2.015       .  S
Fe1805     O1811   2.121       .  S
Fe1805     O1818   2.094       .  S
Fe1805     O1810   2.033       .  S
Fe1805     O1816   1.946       .  S
Fe1806     O2073   2.027       .  S
Fe1806     O1813   2.116       .  S
Fe1806     O1817   2.017       .  S
Fe1806     O1822   2.132       .  S
Fe1806     O1816   1.941       .  S
Fe1807     O1812   2.034       .  S
Fe1807     O1808   2.102       .  S
O1808      C1815   1.271       .  A
O1809     Fe2334   2.027   1_545  S
O1809      C1823   1.257       .  A
O1811      C1814   1.288       .  A
O1812      C1824   1.265       .  A
O1813      C2090   1.276       .  A
C1814      O1819   1.270       .  A
C1814      C2000   1.464       .  S
O1817      C1820   1.262       .  A
O1818      C1820   1.283       .  A
C1820      C1842   1.455       .  S
O1821      C2090   1.255       .  A
C1823      O1825   1.271       .  A
C1823      C1845   1.466       .  S
C1826      O2341   1.276       .  A
C1826      O2349   1.255   1_545  A
Fe1827     O1843   2.015       .  S
Fe1827     O1833   2.121       .  S
Fe1827     O1840   2.094       .  S
Fe1827     O1832   2.033       .  S
Fe1827     O1838   1.946       .  S
Fe1828     O1831   2.027       .  S
Fe1828     O1835   2.116       .  S
Fe1828     O1839   2.017       .  S
Fe1828     O1844   2.133       .  S
Fe1828     O1838   1.941       .  S
Fe1829     O1847   2.116       .  S
Fe1829     O1841   2.036       .  S
Fe1829     O1838   1.954       .  S
O1830      C1837   1.271       .  A
O1831      C1845   1.257       .  A
O1833      C1836   1.288       .  A
O1834      C1846   1.265       .  A
O1835      C1848   1.276       .  A
C1836      O1841   1.270       .  A
O1839      C1842   1.262       .  A
O1840      C1842   1.283       .  A
O1843      C1848   1.255       .  A
C1845      O1847   1.271       .  A
Fe1849     O1865   2.015   1_554  S
Fe1849     O1855   2.121       .  S
Fe1849     O1862   2.094   1_554  S
Fe1849     O1854   2.033       .  S
Fe1849     O1860   1.946   1_554  S
Fe1850     O1861   2.017       .  S
Fe1850     O1866   2.133       .  S
Fe1850     O1860   1.941       .  S
Fe1851     O1856   2.035       .  S
Fe1851     O1863   2.036   1_556  S
Fe1851     O1852   2.102   1_556  S
Fe1851     O1860   1.954       .  S
O1852      C1859   1.271       .  A
O1853      C1867   1.257       .  A
O1854      C1859   1.254       .  A
O1855      C1858   1.288       .  A
O1856      C1868   1.265       .  A
O1857      C1870   1.276       .  A
C1858      O1863   1.270       .  A
C1859      C1980   1.466       .  S
O1861      C1864   1.262       .  A
O1862      C1864   1.283       .  A
C1864      C1886   1.455       .  S
O1866      C1868   1.289       .  A
C1867      O1869   1.271       .  A
C1867      C1889   1.466       .  S
C1868      C1990   1.464       .  S
C1870      C1969   1.466       .  S
Fe1871     O1887   2.015       .  S
Fe1871     O1877   2.121       .  S
Fe1871     O1884   2.094       .  S
Fe1871     O1876   2.033       .  S
Fe1871     O1882   1.946       .  S
Fe1872     O2139   2.027       .  S
Fe1872     O1879   2.116       .  S
Fe1872     O1883   2.017       .  S
Fe1872     O1888   2.132       .  S
Fe1872     O1882   1.941       .  S
Fe1873     O2155   2.116       .  S
Fe1873     O1878   2.035       .  S
Fe1873     O1885   2.036       .  S
Fe1873     O1874   2.102       .  S
Fe1873     O1882   1.954       .  S
O1874      C1881   1.271       .  A
O1875      C1889   1.257       .  A
O1876      C1881   1.254       .  A
O1877      C1880   1.288       .  A
O1878      C1890   1.265       .  A
O1879      C2156   1.276       .  A
C1880      O1885   1.270       .  A
C1880      C2286   1.464       .  S
C1881      C2002   1.466       .  S
O1883      C1886   1.262       .  A
O1884      C1886   1.283       .  A
O1887      C2156   1.255       .  A
O1888      C1890   1.289       .  A
C1889      O1891   1.271       .  A
C1890      C1968   1.464       .  S
C1892      C1991   1.466       .  S
Fe1893     O1909   2.015       .  S
Fe1893     O1899   2.121       .  S
Fe1893     O1906   2.094       .  S
Fe1893     O1898   2.033       .  S
Fe1893     O1904   1.946       .  S
Fe1894     O1897   2.027       .  S
Fe1894     O1901   2.116       .  S
Fe1894     O1905   2.017       .  S
Fe1894     O1910   2.133       .  S
Fe1894     O1904   1.941       .  S
Fe1895     O1913   2.116       .  S
Fe1895     O2164   2.035       .  S
Fe1895     O1907   2.036       .  S
Fe1895     O2160   2.102       .  S
Fe1895     O1904   1.954       .  S
O1896      C1903   1.271       .  A
O1897      C1911   1.257       .  A
O1898      C2167   1.254       .  A
O1899      C1902   1.288       .  A
O1900      C1912   1.265       .  A
O1901      C1914   1.276       .  A
C1902      O1907   1.270       .  A
C1902      C2044   1.464       .  S
C1903      C2068   1.466       .  S
O1905      C1908   1.262       .  A
O1906      C1908   1.283       .  A
C1908      C1930   1.455       .  S
O1909      C1914   1.255       .  A
O1910      C2176   1.289       .  A
C1911      O1913   1.271       .  A
C1911      C1933   1.466       .  S
C1912      C1946   1.464       .  S
C1914      C2057   1.466       .  S
Fe1915     O1931   2.015       .  S
Fe1915     O1921   2.121       .  S
Fe1915     O1928   2.094       .  S
Fe1915     O1920   2.033       .  S
Fe1915     O1926   1.946       .  S
Fe1916     O1927   2.017       .  S
Fe1916     O1932   2.133       .  S
Fe1916     O1926   1.941       .  S
Fe1917     O2186   2.035       .  S
Fe1917     O1929   2.036       .  S
Fe1917     O2182   2.102       .  S
Fe1917     O1926   1.954       .  S
O1918      C1925   1.271       .  A
O1919      C1933   1.257       .  A
O1920      C2189   1.254       .  A
O1921      C1924   1.288       .  A
O1922      C1934   1.265       .  A
O1923      C1936   1.276       .  A
C1924      O1929   1.270       .  A
C1925      C1958   1.466       .  S
O1927      C1930   1.262       .  A
O1928      C1930   1.283       .  A
O1932      C2198   1.289       .  A
C1933      O1935   1.271       .  A
C1934      C2056   1.464       .  S
C1936      C1947   1.466       .  S
Fe1937     O1953   2.015       .  S
Fe1937     O1943   2.121       .  S
Fe1937     O1950   2.094       .  S
Fe1937     O1942   2.033       .  S
Fe1937     O1948   1.946       .  S
Fe1938     O1945   2.116       .  S
Fe1938     O1949   2.017       .  S
Fe1938     O1954   2.132       .  S
Fe1938     O1948   1.941       .  S
Fe1939     O1957   2.116       .  S
Fe1939     O1951   2.036       .  S
Fe1939     O1940   2.102       .  S
Fe1939     O1948   1.954       .  S
O1940      C1947   1.271       .  A
O1941     Fe2202   2.027       .  S
O1941      C1955   1.257       .  A
O1942      C1947   1.254       .  A
O1943      C1946   1.288       .  A
O1945      C1958   1.276       .  A
C1946      O1951   1.270       .  A
O1949      C1952   1.262       .  A
O1950      C1952   1.283       .  A
C1952      C1974   1.455       .  S
O1953      C1958   1.255       .  A
O1954      C1956   1.289       .  A
C1955      O2221   1.271       .  A
C1955      C1977   1.466       .  S
Fe1959     O1975   2.015   1_556  S
Fe1959     O1965   2.121       .  S
Fe1959     O1972   2.094   1_556  S
Fe1959     O1964   2.033       .  S
Fe1959     O1970   1.946   1_556  S
Fe1960     O1963   2.027       .  S
Fe1960     O1967   2.116       .  S
Fe1960     O1971   2.017       .  S
Fe1960     O1976   2.133       .  S
Fe1960     O1970   1.941       .  S
Fe1961     O1979   2.116       .  S
Fe1961     O1973   2.036   1_554  S
Fe1961     O1962   2.102   1_554  S
Fe1961     O1970   1.954       .  S
O1962      C1969   1.271       .  A
O1963      C1977   1.257       .  A
O1964      C1969   1.254       .  A
O1965      C1968   1.288       .  A
O1967      C1980   1.276       .  A
C1968      O1973   1.270       .  A
O1971      C1974   1.262       .  A
O1972      C1974   1.283       .  A
O1975      C1980   1.255       .  A
O1976      C1978   1.289       .  A
C1977      O1979   1.271       .  A
Fe1981     O1997   2.015       .  S
Fe1981     O1987   2.121       .  S
Fe1981     O1994   2.094       .  S
Fe1981     O1986   2.033       .  S
Fe1981     O1992   1.946       .  S
Fe1982     O1985   2.027       .  S
Fe1982     O1989   2.116       .  S
Fe1982     O1993   2.017       .  S
Fe1982     O1998   2.132       .  S
Fe1982     O1992   1.941       .  S
Fe1983     O2001   2.116       .  S
Fe1983     O1995   2.036       .  S
Fe1983     O1992   1.954       .  S
O1984     Fe2247   2.102       .  S
O1984      C2255   1.271       .  A
O1985      C1999   1.257       .  A
O1986      C1991   1.254       .  A
O1987      C1990   1.288       .  A
O1988     Fe2247   2.035       .  S
O1988      C2264   1.265       .  A
O1989      C2002   1.276       .  A
C1990      O1995   1.270       .  A
O1993      C1996   1.262       .  A
O1994      C1996   1.283       .  A
C1996      C2018   1.455       .  S
O1997      C2002   1.255       .  A
O1998      C2000   1.289       .  A
C1999      O2001   1.271       .  A
C1999      C2021   1.466       .  S
Fe2003     O2019   2.015       .  S
Fe2003     O2009   2.121       .  S
Fe2003     O2016   2.094       .  S
Fe2003     O2008   2.033       .  S
Fe2003     O2014   1.946       .  S
Fe2004     O2011   2.116       .  S
Fe2004     O2015   2.017       .  S
Fe2004     O2020   2.133       .  S
Fe2004     O2014   1.941       .  S
Fe2005     O2023   2.116       .  S
Fe2005     O2017   2.036       .  S
Fe2005     O2014   1.954       .  S
O2006     Fe2269   2.102       .  S
O2006      C2277   1.271       .  A
O2007      C2021   1.257       .  A
O2008      C2013   1.254       .  A
O2009      C2012   1.288       .  A
O2010     Fe2269   2.035       .  S
O2010      C2286   1.265       .  A
O2011      C2024   1.276       .  A
C2012      O2017   1.270       .  A
C2012      C2110   1.464   1_655  S
C2013      C2090   1.466       .  S
O2015      C2018   1.262       .  A
O2016      C2018   1.283       .  A
O2019      C2024   1.255       .  A
O2020      C2022   1.289       .  A
C2024      C2079   1.466   1_655  S
Fe2025     O2041   2.015       .  S
Fe2025     O2031   2.121       .  S
Fe2025     O2038   2.094       .  S
Fe2025     O2030   2.033       .  S
Fe2025     O2036   1.946       .  S
Fe2026     O2033   2.116       .  S
Fe2026     O2037   2.017       .  S
Fe2026     O2042   2.133       .  S
Fe2026     O2036   1.941       .  S
Fe2027     O2045   2.116       .  S
Fe2027     O2032   2.035       .  S
Fe2027     O2039   2.036       .  S
Fe2027     O2028   2.102       .  S
Fe2027     O2036   1.954       .  S
O2028      C2035   1.271       .  A
O2029      C2043   1.257       .  A
O2030      C2035   1.254       .  A
O2031      C2034   1.288       .  A
O2032      C2044   1.265       .  A
O2033      C2046   1.276       .  A
C2034      O2039   1.270       .  A
C2034      C2088   1.464   1_655  S
C2035      C2112   1.466       .  S
O2037      C2040   1.262       .  A
O2038      C2040   1.283       .  A
C2040      C2062   1.455       .  S
O2041      C2046   1.255       .  A
O2042      C2044   1.289       .  A
C2043      C2065   1.466       .  S
C2046      C2101   1.466   1_655  S
Fe2047     O2063   2.015       .  S
Fe2047     O2053   2.121       .  S
Fe2047     O2060   2.094       .  S
Fe2047     O2052   2.033       .  S
Fe2047     O2058   1.946       .  S
Fe2048     O2055   2.116       .  S
Fe2048     O2059   2.017       .  S
Fe2048     O2064   2.132       .  S
Fe2048     O2058   1.941       .  S
Fe2049     O2067   2.116       .  S
Fe2049     O2054   2.034       .  S
Fe2049     O2061   2.036       .  S
Fe2049     O2050   2.102       .  S
Fe2049     O2058   1.954       .  S
O2050      C2057   1.271       .  A
O2051     Fe2312   2.027       .  S
O2051      C2065   1.257       .  A
O2052      C2057   1.254       .  A
O2053      C2056   1.288       .  A
O2054      C2066   1.265       .  A
O2055      C2068   1.276       .  A
C2056      O2061   1.270       .  A
O2059      C2062   1.262       .  A
O2060      C2062   1.283       .  A
O2063      C2068   1.255       .  A
O2064      C2066   1.289       .  A
C2065      O2331   1.271       .  A
C2066      C2100   1.464       .  S
Fe2069     O2085   2.015       .  S
Fe2069     O2075   2.121       .  S
Fe2069     O2082   2.094       .  S
Fe2069     O2074   2.033       .  S
Fe2069     O2080   1.946       .  S
Fe2070     O2337   2.027       .  S
Fe2070     O2077   2.116       .  S
Fe2070     O2081   2.017       .  S
Fe2070     O2086   2.132       .  S
Fe2070     O2080   1.941       .  S
Fe2071     O2076   2.034       .  S
Fe2071     O2072   2.102       .  S
O2072      C2079   1.271       .  A
O2073      C2087   1.257       .  A
O2075      C2078   1.288       .  A
O2076      C2088   1.265       .  A
O2077      C2354   1.276       .  A
C2078      O2083   1.270       .  A
C2078      C2264   1.464       .  S
O2081      C2084   1.262       .  A
O2082      C2084   1.283       .  A
C2084      C2106   1.455       .  S
O2085      C2354   1.255       .  A
C2087      O2089   1.271       .  A
C2087      C2109   1.466       .  S
Fe2091     O2107   2.015       .  S
Fe2091     O2097   2.121       .  S
Fe2091     O2104   2.094       .  S
Fe2091     O2096   2.033       .  S
Fe2091     O2102   1.946       .  S
Fe2092     O2095   2.027       .  S
Fe2092     O2099   2.116       .  S
Fe2092     O2103   2.017       .  S
Fe2092     O2108   2.133       .  S
Fe2092     O2102   1.941       .  S
Fe2093     O2111   2.116       .  S
Fe2093     O2105   2.036       .  S
Fe2093     O2102   1.954       .  S
O2094      C2101   1.271       .  A
O2095      C2109   1.257       .  A
O2097      C2100   1.288       .  A
O2098      C2110   1.265       .  A
O2099      C2112   1.276       .  A
C2100      O2105   1.270       .  A
O2103      C2106   1.262       .  A
O2104      C2106   1.283       .  A
O2107      C2112   1.255       .  A
C2109      O2111   1.271       .  A
Fe2113     O2129   2.015   1_554  S
Fe2113     O2119   2.121       .  S
Fe2113     O2126   2.094   1_554  S
Fe2113     O2118   2.033       .  S
Fe2113     O2124   1.946   1_554  S
Fe2114     O2125   2.017       .  S
Fe2114     O2130   2.133       .  S
Fe2114     O2124   1.941       .  S
Fe2115     O2120   2.035       .  S
Fe2115     O2127   2.036   1_556  S
Fe2115     O2116   2.102   1_556  S
Fe2115     O2124   1.954       .  S
O2116      C2123   1.271       .  A
O2117      C2131   1.257       .  A
O2118      C2123   1.254       .  A
O2119      C2122   1.288       .  A
O2120      C2132   1.265       .  A
O2121      C2134   1.276       .  A
C2122      O2127   1.270       .  A
C2123      C2244   1.466       .  S
O2125      C2128   1.262       .  A
O2126      C2128   1.283       .  A
C2128      C2150   1.455       .  S
O2130      C2132   1.289       .  A
C2131      O2133   1.271       .  A
C2131      C2153   1.466       .  S
C2132      C2254   1.464       .  S
C2134      C2233   1.466       .  S
Fe2135     O2151   2.015       .  S
Fe2135     O2141   2.121       .  S
Fe2135     O2148   2.094       .  S
Fe2135     O2140   2.033       .  S
Fe2135     O2146   1.946       .  S
Fe2136     O2143   2.116   1_565  S
Fe2136     O2147   2.017       .  S
Fe2136     O2152   2.132       .  S
Fe2136     O2146   1.941       .  S
Fe2137     O2142   2.035       .  S
Fe2137     O2149   2.036   1_565  S
Fe2137     O2138   2.102       .  S
Fe2137     O2146   1.954       .  S
O2138      C2145   1.271       .  A
O2139      C2153   1.257       .  A
O2140      C2145   1.254       .  A
O2141      C2144   1.288   1_565  A
O2142      C2154   1.265       .  A
C2144      O2149   1.270       .  A
C2145      C2266   1.466       .  S
O2147      C2150   1.262       .  A
O2148      C2150   1.283       .  A
O2152      C2154   1.289       .  A
C2153      O2155   1.271       .  A
C2154      C2232   1.464       .  S
C2156      C2255   1.466       .  S
Fe2157     O2173   2.015       .  S
Fe2157     O2163   2.121       .  S
Fe2157     O2170   2.094       .  S
Fe2157     O2162   2.033       .  S
Fe2157     O2168   1.946       .  S
Fe2158     O2161   2.027       .  S
Fe2158     O2165   2.116       .  S
Fe2158     O2169   2.017       .  S
Fe2158     O2174   2.133       .  S
Fe2158     O2168   1.941       .  S
Fe2159     O2177   2.116       .  S
Fe2159     O2171   2.036       .  S
Fe2159     O2168   1.954       .  S
O2160      C2167   1.271       .  A
O2161      C2175   1.257       .  A
O2163      C2166   1.288       .  A
O2164      C2176   1.265       .  A
O2165      C2178   1.276       .  A
C2166      O2171   1.270       .  A
C2166      C2308   1.464       .  S
C2167      C2332   1.466       .  S
O2169      C2172   1.262       .  A
O2170      C2172   1.283       .  A
C2172      C2194   1.455       .  S
O2173      C2178   1.255       .  A
C2175      O2177   1.271       .  A
C2175      C2197   1.466       .  S
C2176      C2210   1.464       .  S
C2178      C2321   1.466       .  S
Fe2179     O2195   2.015       .  S
Fe2179     O2185   2.121       .  S
Fe2179     O2192   2.094       .  S
Fe2179     O2184   2.033       .  S
Fe2179     O2190   1.946       .  S
Fe2180     O2191   2.017       .  S
Fe2180     O2196   2.133       .  S
Fe2180     O2190   1.941       .  S
Fe2181     O2193   2.036       .  S
Fe2181     O2190   1.954       .  S
O2182      C2189   1.271       .  A
O2183      C2197   1.257       .  A
O2185      C2188   1.288       .  A
O2186      C2198   1.265       .  A
O2187      C2200   1.276       .  A
C2188      O2193   1.270       .  A
C2189      C2222   1.466       .  S
O2191      C2194   1.262       .  A
O2192      C2194   1.283       .  A
C2197      O2199   1.271       .  A
C2198      C2320   1.464       .  S
C2200      C2211   1.466       .  S
Fe2201     O2217   2.015       .  S
Fe2201     O2207   2.121       .  S
Fe2201     O2214   2.094       .  S
Fe2201     O2206   2.033       .  S
Fe2201     O2212   1.946       .  S
Fe2202     O2209   2.116       .  S
Fe2202     O2213   2.017       .  S
Fe2202     O2218   2.132       .  S
Fe2202     O2212   1.941       .  S
Fe2203     O2221   2.116       .  S
Fe2203     O2215   2.036       .  S
Fe2203     O2204   2.102       .  S
Fe2203     O2212   1.954       .  S
O2204      C2211   1.271       .  A
O2205      C2219   1.257       .  A
O2206      C2211   1.254       .  A
O2207      C2210   1.288       .  A
O2209      C2222   1.276       .  A
C2210      O2215   1.270       .  A
O2213      C2216   1.262       .  A
O2214      C2216   1.283       .  A
C2216      C2238   1.455       .  S
O2217      C2222   1.255       .  A
O2218      C2220   1.289       .  A
C2219      C2241   1.466       .  S
Fe2223     O2239   2.015   1_556  S
Fe2223     O2229   2.121       .  S
Fe2223     O2236   2.094   1_556  S
Fe2223     O2228   2.033       .  S
Fe2223     O2234   1.946   1_556  S
Fe2224     O2227   2.027       .  S
Fe2224     O2231   2.116       .  S
Fe2224     O2235   2.017       .  S
Fe2224     O2240   2.133       .  S
Fe2224     O2234   1.941       .  S
Fe2225     O2243   2.116       .  S
Fe2225     O2237   2.036   1_554  S
Fe2225     O2226   2.102   1_554  S
Fe2225     O2234   1.954       .  S
O2226      C2233   1.271       .  A
O2227      C2241   1.257       .  A
O2228      C2233   1.254       .  A
O2229      C2232   1.288       .  A
O2231      C2244   1.276       .  A
C2232      O2237   1.270       .  A
O2235      C2238   1.262       .  A
O2236      C2238   1.283       .  A
O2239      C2244   1.255       .  A
O2240      C2242   1.289       .  A
C2241      O2243   1.271       .  A
Fe2245     O2261   2.015       .  S
Fe2245     O2251   2.121       .  S
Fe2245     O2258   2.094       .  S
Fe2245     O2250   2.033       .  S
Fe2245     O2256   1.946       .  S
Fe2246     O2249   2.027       .  S
Fe2246     O2253   2.116       .  S
Fe2246     O2257   2.017       .  S
Fe2246     O2262   2.132       .  S
Fe2246     O2256   1.941       .  S
Fe2247     O2265   2.116       .  S
Fe2247     O2259   2.036       .  S
Fe2247     O2256   1.954       .  S
O2249      C2263   1.257       .  A
O2250      C2255   1.254       .  A
O2251      C2254   1.288       .  A
O2253      C2266   1.276       .  A
C2254      O2259   1.270       .  A
O2257      C2260   1.262       .  A
O2258      C2260   1.283       .  A
C2260      C2282   1.455       .  S
O2261      C2266   1.255       .  A
O2262      C2264   1.289       .  A
C2263      O2265   1.271       .  A
C2263      C2285   1.466       .  S
Fe2267     O2283   2.015       .  S
Fe2267     O2273   2.121       .  S
Fe2267     O2280   2.094       .  S
Fe2267     O2272   2.033       .  S
Fe2267     O2278   1.946       .  S
Fe2268     O2275   2.116       .  S
Fe2268     O2279   2.017       .  S
Fe2268     O2284   2.133       .  S
Fe2268     O2278   1.941       .  S
Fe2269     O2287   2.116       .  S
Fe2269     O2281   2.036       .  S
Fe2269     O2278   1.954       .  S
O2271      C2285   1.257       .  A
O2272      C2277   1.254       .  A
O2273      C2276   1.288       .  A
O2275      C2288   1.276       .  A
C2276      O2281   1.270       .  A
C2276      C2374   1.464   1_655  S
C2277      C2354   1.466       .  S
O2279      C2282   1.262       .  A
O2280      C2282   1.283       .  A
O2283      C2288   1.255       .  A
O2284      C2286   1.289       .  A
C2288      C2343   1.466   1_655  S
Fe2289     O2305   2.015       .  S
Fe2289     O2295   2.121       .  S
Fe2289     O2302   2.094       .  S
Fe2289     O2294   2.033       .  S
Fe2289     O2300   1.946       .  S
Fe2290     O2297   2.116       .  S
Fe2290     O2301   2.017       .  S
Fe2290     O2306   2.133       .  S
Fe2290     O2300   1.941       .  S
Fe2291     O2309   2.116       .  S
Fe2291     O2296   2.035       .  S
Fe2291     O2303   2.036       .  S
Fe2291     O2292   2.102       .  S
Fe2291     O2300   1.954       .  S
O2292      C2299   1.271       .  A
O2293      C2307   1.257       .  A
O2294      C2299   1.254       .  A
O2295      C2298   1.288       .  A
O2296      C2308   1.265       .  A
O2297      C2310   1.276       .  A
C2298      O2303   1.270       .  A
C2298      C2352   1.464   1_655  S
C2299      C2376   1.466       .  S
O2301      C2304   1.262       .  A
O2302      C2304   1.283       .  A
C2304      C2326   1.455       .  S
O2305      C2310   1.255       .  A
O2306      C2308   1.289       .  A
C2307      C2329   1.466       .  S
C2310      C2365   1.466   1_655  S
Fe2311     O2327   2.015       .  S
Fe2311     O2317   2.121       .  S
Fe2311     O2324   2.094       .  S
Fe2311     O2316   2.033       .  S
Fe2311     O2322   1.946       .  S
Fe2312     O2319   2.116       .  S
Fe2312     O2323   2.017       .  S
Fe2312     O2328   2.132       .  S
Fe2312     O2322   1.941       .  S
Fe2313     O2331   2.116       .  S
Fe2313     O2318   2.034       .  S
Fe2313     O2325   2.036       .  S
Fe2313     O2314   2.102       .  S
Fe2313     O2322   1.954       .  S
O2314      C2321   1.271       .  A
O2315      C2329   1.257       .  A
O2316      C2321   1.254       .  A
O2317      C2320   1.288       .  A
O2318      C2330   1.265       .  A
O2319      C2332   1.276       .  A
C2320      O2325   1.270       .  A
O2323      C2326   1.262       .  A
O2324      C2326   1.283       .  A
O2327      C2332   1.255       .  A
O2328      C2330   1.289       .  A
C2330      C2364   1.464       .  S
Fe2333     O2349   2.015       .  S
Fe2333     O2339   2.121       .  S
Fe2333     O2346   2.094       .  S
Fe2333     O2338   2.033       .  S
Fe2333     O2344   1.946       .  S
Fe2334     O2341   2.116   1_565  S
Fe2334     O2345   2.017       .  S
Fe2334     O2350   2.132       .  S
Fe2334     O2344   1.941       .  S
Fe2335     O2340   2.034       .  S
Fe2335     O2336   2.102       .  S
O2336      C2343   1.271       .  A
O2337      C2351   1.257       .  A
O2339      C2342   1.288   1_565  A
O2340      C2352   1.265       .  A
C2342      O2347   1.270       .  A
O2345      C2348   1.262       .  A
O2346      C2348   1.283       .  A
C2348      C2370   1.455       .  S
C2351      O2353   1.271       .  A
C2351      C2373   1.466       .  S
Fe2355     O2371   2.015       .  S
Fe2355     O2361   2.121       .  S
Fe2355     O2368   2.094       .  S
Fe2355     O2360   2.033       .  S
Fe2355     O2366   1.946       .  S
Fe2356     O2359   2.027       .  S
Fe2356     O2363   2.116       .  S
Fe2356     O2367   2.017       .  S
Fe2356     O2372   2.133       .  S
Fe2356     O2366   1.941       .  S
Fe2357     O2375   2.116       .  S
Fe2357     O2369   2.036       .  S
Fe2357     O2366   1.954       .  S
O2358      C2365   1.271       .  A
O2359      C2373   1.257       .  A
O2361      C2364   1.288       .  A
O2362      C2374   1.265       .  A
O2363      C2376   1.276       .  A
C2364      O2369   1.270       .  A
O2367      C2370   1.262       .  A
O2368      C2370   1.283       .  A
O2371      C2376   1.255       .  A
C2373      O2375   1.271       .  A
