geometry optimzed in LAMMPS
_audit_creation_date              2020-12-01 
_audit_creation_method            'lammps2cif' 
_symmetry_space_group_name_H-M    'P1' 
_symmetry_Int_Tables_number       1 
_symmetry_cell_setting            triclinic 
loop_ 
_symmetry_equiv_pos_as_xyz 
  x,y,z 
_cell_length_a                    52.06616055 
_cell_length_b                    52.17022106401064 
_cell_length_c                    30.636574493665787 
_cell_angle_alpha                 90.47388745237865 
_cell_angle_beta                  89.64508239164566 
_cell_angle_gamma                 89.47916254910629 
loop_ 
_atom_site_label 
_atom_site_type_symbol 
_atom_site_fract_x 
_atom_site_fract_y 
_atom_site_fract_z 
_atom_site_charge 
O1          O  0.35055927  0.82383652  0.43850051    -0.82300
C2          C  0.33739362  0.87465961  0.28513322     0.97100
O3          O  0.32418961  0.86048009  0.30992403    -0.71400
O4          O  0.31731161  0.82465121  0.36963351    -0.75000
Al5        Al  0.32692137  0.86003404  0.37247791     1.49000
C6          C  0.32918157  0.80508441  0.35526136     0.92400
O7          O  0.40208689  0.82301094  0.34652939    -0.81200
O8          O  0.40953524  0.87222777  0.38203275    -0.74700
Al9        Al  0.37428907  0.82582671  0.38988821     1.90100
O10         O  0.39138157  0.85403349  0.30294397    -0.73800
O11         O  0.36970155  0.90351173  0.38413455    -0.73700
O12         O  0.35541277  0.88776560  0.30125677    -0.79300
O13         O  0.32852317  0.89704848  0.37662921    -0.77500
O14         O  0.36051333  0.85452503  0.36930737    -1.13700
O15         O  0.32815608  0.85966683  0.43439890    -0.72900
C16         C  0.33805552  0.84195814  0.45702849     0.97900
C17         C  0.40609408  0.83577025  0.31209912     0.94300
Al18       Al  0.38004638  0.87761154  0.34461814     1.55600
O19         O  0.35344374  0.80467739  0.35312399    -0.77500
C20         C  0.34687580  0.91156068  0.38719108     0.98400
C21         C  0.41242766  0.86010351  0.41736513     0.93300
O22         O  0.39619514  0.84364397  0.42882585    -0.82800
O23         O  0.36087134  0.82778244  0.94896459    -0.82300
C24         C  0.36146620  0.86597696  0.78112035     0.97100
O25         O  0.34536267  0.85736027  0.80809792    -0.71400
O26         O  0.33002188  0.82774539  0.87105562    -0.75000
Al27       Al  0.34623921  0.86077410  0.86994789     1.49000
C28         C  0.33896452  0.80550976  0.86346617     0.92400
O29         O  0.41226193  0.80776580  0.86392293    -0.81200
O30         O  0.42950228  0.85772630  0.88555383    -0.74700
Al31       Al  0.38554795  0.82072542  0.90294383     1.90100
O32         O  0.41158274  0.83541108  0.81075496    -0.73800
O33         O  0.39711572  0.89673347  0.87283590    -0.73700
O34         O  0.38252963  0.87480054  0.79458194    -0.79300
O35         O  0.35520249  0.89662278  0.86724450    -0.77500
O36         O  0.37834565  0.84893184  0.87251464    -1.13700
O37         O  0.34397206  0.86497245  0.93178652    -0.72900
C38         C  0.34859367  0.84794858  0.95991127     0.97900
C39         C  0.41944843  0.81450816  0.82620120     0.94300
Al40       Al  0.40308781  0.86492581  0.84366601     1.55600
O41         O  0.36228357  0.80054479  0.87045893    -0.77500
C42         C  0.37592229  0.90870159  0.87298215     0.98400
C43         C  0.43002765  0.84762603  0.92296873     0.93300
O44         O  0.41014849  0.83746671  0.93860036    -0.82800
O45         O  0.39045461  0.16369022  0.46158313    -0.82300
C46         C  0.32950691  0.14078091  0.31592328     0.97100
O47         O  0.34826443  0.12726089  0.32887571    -0.71400
O48         O  0.38673496  0.15865611  0.33525478    -0.75000
Al49       Al  0.37317827  0.13415968  0.37348201     1.49000
C50         C  0.39947264  0.17772488  0.34769146     0.92400
O51         O  0.34725046  0.20798068  0.39760418    -0.81200
O52         O  0.32112860  0.14949367  0.46604899    -0.74700
Al53       Al  0.36810292  0.18389540  0.42764145     1.90100
O54         O  0.31100341  0.18816891  0.40877547    -0.73800
O55         O  0.32074315  0.11565915  0.40102264    -0.73700
O56         O  0.31738974  0.15548174  0.34212512    -0.79300
O57         O  0.36168033  0.10728684  0.40925223    -0.77500
O58         O  0.35394170  0.15705042  0.40166952    -1.13700
O59         O  0.40252576  0.13635017  0.41109004    -0.72900
C60         C  0.40633495  0.14730327  0.44737746     0.97900
C61         C  0.32319138  0.20862732  0.40260838     0.94300
Al62       Al  0.32013476  0.15261786  0.40414260     1.55600
O63         O  0.39448042  0.18866356  0.38389293    -0.77500
C64         C  0.33864571  0.10022166  0.41050550     0.98400
C65         C  0.33074018  0.16604490  0.49146379     0.93300
O66         O  0.34526038  0.18349395  0.47711497    -0.82800
O67         O  0.35378605  0.18783637  0.83276139    -0.82300
C68         C  0.35029750  0.14106091  0.99195062     0.97100
O69         O  0.33478861  0.14977721  0.96423455    -0.71400
O70         O  0.31955445  0.18139562  0.90375716    -0.75000
Al71       Al  0.33863801  0.14953691  0.90303436     1.49000
C72         C  0.32575060  0.20402443  0.91398261     0.92400
O73         O  0.39956118  0.20586251  0.92518019    -0.81200
O74         O  0.42220715  0.15719233  0.89479419    -0.74700
Al75       Al  0.37563879  0.19377861  0.88197405     1.90100
O76         O  0.40113079  0.17467308  0.97215711    -0.73800
O77         O  0.39172313  0.11665747  0.90022914    -0.73700
O78         O  0.37283999  0.13436632  0.98034614    -0.79300
O79         O  0.34993774  0.11406074  0.90223905    -0.77500
O80         O  0.36982941  0.16341687  0.90628020    -1.13700
O81         O  0.33974362  0.14852500  0.84118870    -0.72900
C82         C  0.34399843  0.16760947  0.81715582     0.97900
C83         C  0.40737428  0.19686850  0.96096349     0.94300
Al84       Al  0.39480025  0.14700442  0.93425967     1.55600
O85         O  0.34903994  0.21041513  0.91435865    -0.77500
C86         C  0.37170157  0.10341567  0.89730324     0.98400
C87         C  0.42286241  0.16988867  0.85967426     0.93300
O88         O  0.40290757  0.18126440  0.84662603    -0.82800
O89         O  0.59942481  0.84848639  0.19661127    -0.82300
C90         C  0.65827907  0.88760549  0.05775971     0.97100
O91         O  0.63742142  0.89684904  0.07238728    -0.71400
O92         O  0.60768982  0.85714860  0.07096954    -0.75000
Al93       Al  0.61348287  0.88267638  0.11283723     1.49000
C94         C  0.59727649  0.83610490  0.07971981     0.92400
O95         O  0.65210480  0.81409264  0.13264212    -0.81200
O96         O  0.66604268  0.87423225  0.20738576    -0.74700
Al97       Al  0.62619614  0.83341256  0.16275548     1.90100
O98         O  0.68382120  0.84005425  0.14596868    -0.73800
O99         O  0.65953725  0.91030017  0.14776340    -0.73700
O100        O  0.67246038  0.87420642  0.08246842    -0.79300
O101        O  0.61751864  0.91002886  0.15271862    -0.77500
O102        O  0.63591016  0.86315459  0.14050521    -1.13700
O103        O  0.58391013  0.87287043  0.14550662    -0.72900
C104        C  0.58079585  0.86035589  0.18006088     0.97900
C105        C  0.67579616  0.81757395  0.13881230     0.94300
Al106      Al  0.66805953  0.87383745  0.14527869     1.55600
O107        O  0.60213827  0.82502255  0.11563270    -0.77500
C108        C  0.63845870  0.92173183  0.15667441     0.98400
C109        C  0.65947734  0.85536848  0.23050316     0.93300
O110        O  0.64722702  0.83671612  0.21409912    -0.82800
O111        O  0.63167266  0.82929583  0.56592478    -0.82300
C112        C  0.64094228  0.87249053  0.73461700     0.97100
O113        O  0.65743836  0.87396137  0.70410188    -0.71400
O114        O  0.67199476  0.83054057  0.66833674    -0.75000
Al115      Al  0.65840566  0.86088233  0.64462181     1.49000
C116        C  0.66772953  0.80740267  0.65959096     0.92400
O117        O  0.60146408  0.80621048  0.67049516    -0.81200
O118        O  0.58255422  0.87241732  0.61907166    -0.74700
Al119      Al  0.61764325  0.81987890  0.61988324     1.90100
O120        O  0.58067937  0.84118345  0.68950659    -0.73800
O121        O  0.61600431  0.90134551  0.66013146    -0.73700
O122        O  0.61797920  0.86677284  0.72601673    -0.79300
O123        O  0.64981792  0.89298507  0.62037826    -0.77500
O124        O  0.62596738  0.84968583  0.64535164    -1.13700
O125        O  0.66576206  0.85048229  0.58531157    -0.72900
C126        C  0.65203267  0.84063907  0.55585470     0.97900
C127        C  0.58331309  0.81722525  0.69074574     0.94300
Al128      Al  0.60155146  0.86871533  0.67142277     1.55600
O129        O  0.64834672  0.80141036  0.63708040    -0.77500
C130        C  0.63351548  0.90875915  0.63494653     0.98400
C131        C  0.57486231  0.85425119  0.59506930     0.93300
O132        O  0.58536522  0.83226707  0.59717311    -0.82800
O133        O  0.63529925  0.19800354  0.20915629    -0.82300
C134        C  0.63796601  0.14974605  0.04852483     0.97100
O135        O  0.65329657  0.16112181  0.07375103    -0.71400
O136        O  0.66698098  0.19463486  0.13353233    -0.75000
Al137      Al  0.65188541  0.16115436  0.13568803     1.49000
C138        C  0.65771761  0.21616585  0.12301764     0.92400
O139        O  0.58393748  0.21053114  0.12211321    -0.81200
O140        O  0.56863871  0.16078409  0.15240160    -0.74700
Al141      Al  0.61090451  0.20144549  0.16206541     1.90100
O142        O  0.58475139  0.17955179  0.07376618    -0.73800
O143        O  0.60290348  0.12376502  0.14494006    -0.73700
O144        O  0.61687945  0.14135825  0.06313346    -0.79300
O145        O  0.64469896  0.12507832  0.13793132    -0.77500
O146        O  0.61925893  0.17179513  0.13633690    -1.13700
O147        O  0.65320588  0.16029663  0.19724672    -0.72900
C148        C  0.64743685  0.17849272  0.22292331     0.97900
C149        C  0.57579633  0.20069232  0.08700286     0.94300
Al150      Al  0.59536880  0.15285113  0.11081643     1.55600
O151        O  0.63388333  0.22031806  0.12621306    -0.77500
C152        C  0.62454797  0.11296885  0.14748678     0.98400
C153        C  0.56793405  0.17306059  0.18814404     0.93300
O154        O  0.58678116  0.18634723  0.20008708    -0.82800
O155        O  0.59564574  0.16380427  0.57585060    -0.82300
C156        C  0.65486770  0.14095608  0.72301134     0.97100
O157        O  0.63589723  0.12791595  0.71058587    -0.71400
O158        O  0.59985600  0.16269558  0.70319220    -0.75000
Al159      Al  0.61141453  0.13609498  0.66591252     1.49000
C160        C  0.58749862  0.18186023  0.68972849     0.92400
O161        O  0.64122189  0.20772932  0.63699190    -0.81200
O162        O  0.66534662  0.14635992  0.57158096    -0.74700
Al163      Al  0.61891705  0.18380325  0.60882809     1.90100
O164        O  0.67631690  0.18453220  0.62965937    -0.73800
O165        O  0.66230604  0.11285260  0.63654095    -0.73700
O166        O  0.66805346  0.15339004  0.69579901    -0.79300
O167        O  0.62078687  0.10763601  0.63132869    -0.77500
O168        O  0.63187387  0.15672421  0.63608361    -1.13700
O169        O  0.58206955  0.13951010  0.62873076    -0.72900
C170        C  0.57900475  0.14898399  0.59134564     0.97900
C171        C  0.66543809  0.20614060  0.63370190     0.94300
Al172      Al  0.66538930  0.14978640  0.63386851     1.55600
O173        O  0.59246945  0.19133306  0.65257970    -0.77500
C174        C  0.64326224  0.09873052  0.62835277     0.98400
C175        C  0.65720887  0.16368336  0.54628580     0.93300
O176        O  0.64177529  0.18093870  0.55984571    -0.82800
O177        O  0.81774327  0.63213562  0.31587765    -0.82300
C178        C  0.85662907  0.64392637  0.14532743     0.97100
O179        O  0.85992037  0.65939888  0.17687835    -0.71400
O180        O  0.81768245  0.67444101  0.21423357    -0.75000
Al181      Al  0.84780664  0.65973457  0.23672306     1.49000
C182        C  0.79467681  0.67134108  0.22526067     0.92400
O183        O  0.79037022  0.60657148  0.21139237    -0.81200
O184        O  0.85709465  0.58267761  0.25632948    -0.74700
Al185      Al  0.80610741  0.62021620  0.26202314     1.90100
O186        O  0.82360637  0.58422240  0.18830206    -0.73800
O187        O  0.88623994  0.61675951  0.21516319    -0.73700
O188        O  0.84998353  0.62109231  0.15233723    -0.79300
O189        O  0.88017820  0.64951388  0.25884927    -0.77500
O190        O  0.83550260  0.62780477  0.23488557    -1.13700
O191        O  0.83803553  0.66678800  0.29692557    -0.72900
C192        C  0.82826491  0.65283106  0.32617680     0.97900
C193        C  0.79977689  0.58856036  0.18876443     0.94300
Al194      Al  0.85275602  0.60332608  0.20567566     1.55600
O195        O  0.78851688  0.65243159  0.24875491    -0.77500
C196        C  0.89513154  0.63431155  0.23901254     0.98400
C197        C  0.83906598  0.57477038  0.28050558     0.93300
O198        O  0.81754573  0.58649248  0.28121113    -0.82800
O199        O  0.83947434  0.60215261  0.68964682    -0.82300
C200        C  0.87372602  0.66587289  0.82510895     0.97100
O201        O  0.88440418  0.64489011  0.81416205    -0.71400
O202        O  0.84618103  0.61319872  0.81449697    -0.75000
Al203      Al  0.87267813  0.61923866  0.77388568     1.49000
C204        C  0.82476258  0.60371897  0.80506963     0.92400
O205        O  0.80390544  0.65669890  0.74679390    -0.81200
O206        O  0.86572130  0.66819019  0.67353025    -0.74700
Al207      Al  0.82391675  0.62996932  0.71996056     1.90100
O208        O  0.83006292  0.68755270  0.73019193    -0.73800
O209        O  0.90000633  0.66532246  0.73885943    -0.73700
O210        O  0.86136794  0.67890284  0.79735402    -0.79300
O211        O  0.90173492  0.62338572  0.73664053    -0.77500
O212        O  0.85330386  0.64041989  0.74287459    -1.13700
O213        O  0.86442458  0.58860594  0.74174287    -0.72900
C214        C  0.85153972  0.58417906  0.70776763     0.97900
C215        C  0.80756688  0.67997956  0.73808627     0.94300
Al216      Al  0.86354363  0.67249815  0.73561997     1.55600
O217        O  0.81464010  0.60793463  0.76821710    -0.77500
C218        C  0.91292527  0.64473187  0.73508630     0.98400
C219        C  0.84688098  0.66120846  0.65028412     0.93300
O220        O  0.82813674  0.64924744  0.66702182    -0.82800
O221        O  0.17419419  0.65243080  0.18997796    -0.82300
C222        C  0.12579886  0.66851097  0.34621680     0.97100
O223        O  0.13791889  0.68153012  0.31834265    -0.71400
O224        O  0.17187688  0.68875375  0.25574487    -0.75000
Al225      Al  0.13732091  0.67581022  0.25680647     1.49000
C226        C  0.19270733  0.67944519  0.26998703     0.92400
O227        O  0.18229476  0.60633323  0.28671431    -0.81200
O228        O  0.13251201  0.59249648  0.25722082    -0.74700
Al229      Al  0.17550730  0.63118907  0.24107390     1.90100
O230        O  0.15112779  0.61444384  0.33279195    -0.73800
O231        O  0.09823939  0.62877222  0.25536053    -0.73700
O232        O  0.11471398  0.64805989  0.33470103    -0.79300
O233        O  0.10028507  0.67048493  0.25703609    -0.77500
O234        O  0.14618966  0.64309719  0.26329447    -1.13700
O235        O  0.13669970  0.67223487  0.19476461    -0.72900
C236        C  0.15539840  0.66379412  0.17201662     0.97900
C237        C  0.17140637  0.60259645  0.32319821     0.94300
Al238      Al  0.12575379  0.62259379  0.29258116     1.55600
O239        O  0.19529853  0.65540612  0.27311474    -0.77500
C240        C  0.08734138  0.65021993  0.25205093     0.98400
C241        C  0.14386738  0.58918626  0.22096170     0.93300
O242        O  0.15893377  0.60604054  0.20682923    -0.82800
O243        O  0.17397097  0.59699407  0.80887271    -0.82300
C244        C  0.15136280  0.66034719  0.66526531     0.97100
O245        O  0.14226048  0.63838450  0.67227165    -0.71400
O246        O  0.17895510  0.60462040  0.68290809    -0.75000
Al247      Al  0.14938505  0.61323270  0.71589045     1.49000
C248        C  0.19840358  0.59340234  0.69816017     0.92400
O249        O  0.21657668  0.64783062  0.75810631    -0.81200
O250        O  0.15019601  0.66332561  0.81741524    -0.74700
Al251      Al  0.19347363  0.62269758  0.78118400     1.90100
O252        O  0.18970009  0.67995152  0.76671689    -0.73800
O253        O  0.12055173  0.66102274  0.74737411    -0.73700
O254        O  0.16186008  0.67308042  0.69546338    -0.79300
O255        O  0.11748047  0.61937720  0.74493770    -0.77500
O256        O  0.16654753  0.63416555  0.75097589    -1.13700
O257        O  0.15323979  0.58339837  0.75121504    -0.72900
C258        C  0.16170221  0.57977989  0.78919785     0.97900
C259        C  0.21247492  0.67151919  0.76452498     0.94300
Al260      Al  0.15647354  0.66668539  0.75619313     1.55600
O261        O  0.20549980  0.59827833  0.73688040    -0.77500
C262        C  0.10692668  0.64117128  0.74841245     0.98400
C263        C  0.16698205  0.65629127  0.84463570     0.93300
O264        O  0.18657937  0.64356761  0.83219394    -0.82800
O265        O  0.81644648  0.35340961  0.45139933    -0.82300
C266        C  0.86572034  0.34221022  0.60467831     0.97100
O267        O  0.85314907  0.32840797  0.57842500    -0.71400
O268        O  0.81816318  0.32025580  0.51837333    -0.75000
Al269      Al  0.85359964  0.33111636  0.51650842     1.49000
C270        C  0.79848713  0.33135317  0.53444024     0.92400
O271        O  0.81392883  0.40503315  0.54383066    -0.81200
O272        O  0.86354758  0.41383994  0.50660818    -0.74700
Al273      Al  0.81775182  0.37721284  0.50021557     1.90100
O274        O  0.84567781  0.39546393  0.58649117    -0.73800
O275        O  0.89639669  0.37494659  0.50660945    -0.73700
O276        O  0.87944792  0.36024322  0.58987035    -0.79300
O277        O  0.89105575  0.33371290  0.51469779    -0.77500
O278        O  0.84709966  0.36448911  0.52013593    -1.13700
O279        O  0.85344841  0.33253333  0.45433672    -0.72900
C280        C  0.83456220  0.34099376  0.43247842     0.97900
C281        C  0.82663356  0.40926794  0.57832957     0.94300
Al282      Al  0.86955692  0.38466267  0.54525092     1.55600
O283        O  0.79771324  0.35556675  0.53734018    -0.77500
C284        C  0.90547086  0.35254049  0.50636331     0.98400
C285        C  0.85077456  0.41631387  0.47162574     0.93300
O286        O  0.83445447  0.39966588  0.46122077    -0.82800
O287        O  0.80915613  0.37071998  0.93894247    -0.82300
C288        C  0.84267044  0.36919601  0.10871880     0.97100
O289        O  0.83423859  0.35369169  0.08039633    -0.71400
O290        O  0.80729196  0.33880088  0.01228075    -0.75000
Al291      Al  0.83996754  0.35540932  0.01916098     1.49000
C292        C  0.78474405  0.34714491  0.01887814     0.92400
O293        O  0.78650166  0.42057177  0.02483336    -0.81200
O294        O  0.83822096  0.43892153  0.00523285    -0.74700
Al295      Al  0.80053799  0.39466357  0.98582906     1.90100
O296        O  0.81385971  0.42133839  0.07856782    -0.73800
O297        O  0.87644436  0.40561216  0.02131539    -0.73700
O298        O  0.85165011  0.39059817  0.09706328    -0.79300
O299        O  0.87551812  0.36380596  0.02674469    -0.77500
O300        O  0.82823183  0.38755795  0.01733503    -1.13700
O301        O  0.84648254  0.35466720  0.95806056    -0.72900
C302        C  0.83008692  0.35933080  0.92884949     0.97900
C303        C  0.79281006  0.42829517  0.06246214     0.94300
Al304      Al  0.84386150  0.41202512  0.04771829     1.55600
O305        O  0.77998961  0.37076848  0.01633217    -0.77500
C306        C  0.88800944  0.38429024  0.02273363     0.98400
C307        C  0.82788476  0.43941398  0.96787348     0.93300
O308        O  0.81737806  0.41969413  0.95243347    -0.82800
O309        O  0.17103689  0.36088040  0.06875817    -0.82300
C310        C  0.11660704  0.34878703  0.91912853     0.97100
O311        O  0.12865097  0.33470177  0.94568683    -0.71400
O312        O  0.16418376  0.32487897  0.00416254    -0.75000
Al313      Al  0.13041119  0.34039624  0.00741761     1.49000
C314        C  0.18517749  0.33280861  0.98835737     0.92400
O315        O  0.17786818  0.40662622  0.97144637    -0.81200
O316        O  0.13010812  0.42372192  0.00726291    -0.74700
Al317      Al  0.17151095  0.38212533  0.01796871     1.90100
O318        O  0.14474917  0.40021206  0.92971084    -0.73800
O319        O  0.09388347  0.39022375  0.01339507    -0.73700
O320        O  0.10658821  0.36968750  0.93224959    -0.79300
O321        O  0.09360344  0.34843693  0.01158007    -0.77500
O322        O  0.14081717  0.37231521  0.99959342    -1.13700
O323        O  0.13238202  0.34426921  0.06967195    -0.72900
C324        C  0.15244093  0.35132924  0.08975753     0.97900
C325        C  0.16577709  0.41089679  0.93642086     0.94300
Al326      Al  0.12048034  0.39423848  0.97286537     1.55600
O327        O  0.18896322  0.35656980  0.98408644    -0.77500
C328        C  0.08182575  0.36963877  0.01718651     0.98400
C329        C  0.14244819  0.42586125  0.04254392     0.93300
O330        O  0.15747537  0.40818080  0.05427593    -0.82800
O331        O  0.16296865  0.41776101  0.45013363    -0.82300
C332        C  0.13958318  0.35758707  0.59717503     0.97100
O333        O  0.12897271  0.37859576  0.58713735    -0.71400
O334        O  0.16434331  0.41377455  0.57708666    -0.75000
Al335      Al  0.13646389  0.40295224  0.54230100     1.49000
C336        C  0.18397854  0.42481037  0.56215337     0.92400
O337        O  0.20685867  0.37093558  0.50725530    -0.81200
O338        O  0.14397130  0.35007920  0.44594201    -0.74700
Al339      Al  0.18314036  0.39378462  0.48100729     1.90100
O340        O  0.18321208  0.33661386  0.50058564    -0.73800
O341        O  0.11208878  0.35289913  0.51309334    -0.73700
O342        O  0.15229926  0.34463424  0.56925385    -0.79300
O343        O  0.10602646  0.39442577  0.51088510    -0.77500
O344        O  0.15619384  0.38184706  0.51046239    -1.13700
O345        O  0.14041294  0.43241413  0.50560966    -0.72900
C346        C  0.15064923  0.43563011  0.46862660     0.97900
C347        C  0.20497042  0.34696055  0.50330133     0.94300
Al348      Al  0.14859327  0.34871663  0.50760917     1.55600
O349        O  0.19243106  0.41925889  0.52434415    -0.77500
C350        C  0.09724085  0.37193219  0.50832192     0.98400
C351        C  0.16040071  0.35813333  0.41887559     0.93300
O352        O  0.17914496  0.37153142  0.43134238    -0.82800
C353        C  0.11598334  0.34224693  0.87170217    -0.20300
C354        C  0.09766021  0.35329155  0.84353462     0.35900
C355        C  0.10088264  0.35116091  0.79804638    -0.26300
C356        C  0.12212875  0.33811757  0.77979268     0.02300
C357        C  0.13956330  0.32562257  0.80774132     0.27100
C358        C  0.13637348  0.32792122  0.85327157    -0.25400
N359        N  0.07607042  0.36728310  0.86091865    -0.82800
H360        H  0.08733500  0.36081027  0.77692544     0.12900
C361        C  0.12736138  0.34003842  0.73201024     0.02300
N362        N  0.16091182  0.31133607  0.78969944    -0.81400
H363        H  0.15080176  0.31978623  0.87427766     0.17800
C364        C  0.15061553  0.35086939  0.71807438    -0.26200
C365        C  0.15556160  0.35533702  0.67362875     0.35800
C366        C  0.13693077  0.34883582  0.64250413    -0.20300
C367        C  0.11387428  0.33760401  0.65603942    -0.25500
C368        C  0.10894908  0.33295535  0.70055567     0.27200
H369        H  0.16456686  0.35675846  0.74217625     0.12900
N370        N  0.17881149  0.36771911  0.66009176    -0.82800
H371        H  0.09943050  0.33310967  0.63189634     0.17800
N372        N  0.08521225  0.32150953  0.71402890    -0.81400
H373        H  0.19033361  0.37179175  0.68706105     0.33400
H374        H  0.18916392  0.35474157  0.64046810     0.37900
H375        H  0.07370289  0.31760675  0.68697015     0.33400
H376        H  0.08967265  0.30385241  0.72813262     0.30100
H377        H  0.17209956  0.30348253  0.81456160     0.33400
H378        H  0.15345323  0.29592405  0.77198743     0.30100
H379        H  0.05934204  0.35872877  0.84928187     0.37900
H380        H  0.07675150  0.38596927  0.84891970     0.33400
C381        C  0.15436600  0.34898586  0.13825593    -0.20300
C382        C  0.17434623  0.36095461  0.16212696     0.35900
C383        C  0.17405177  0.36024494  0.20792157    -0.26300
C384        C  0.15518533  0.34686750  0.23104049     0.02300
C385        C  0.13559528  0.33440508  0.20744008     0.27100
C386        C  0.13520251  0.33590914  0.16149640    -0.25400
N387        N  0.19471537  0.37426683  0.14019945    -0.82800
H388        H  0.18873048  0.37040159  0.22582656     0.12900
C389        C  0.15602713  0.34696776  0.27987335     0.02300
N390        N  0.11618997  0.32021902  0.23014629    -0.81400
H391        H  0.11983403  0.32671198  0.14377410     0.17800
C392        C  0.13393151  0.35393344  0.30402566    -0.26200
C393        C  0.13459288  0.35646767  0.34979154     0.35800
C394        C  0.15794427  0.35243629  0.37181765    -0.20300
C395        C  0.17993829  0.34515779  0.34800918    -0.25500
C396        C  0.17915794  0.34190125  0.30245301     0.27200
H397        H  0.11629904  0.35838525  0.28700871     0.12900
N398        N  0.11192949  0.36417073  0.37374176    -0.82800
H399        H  0.19784945  0.34205746  0.36513061     0.17800
N400        N  0.20182835  0.33366731  0.27901684    -0.81400
H401        H  0.09631973  0.36626094  0.35274157     0.33400
H402        H  0.11530896  0.38227651  0.38734530     0.37900
H403        H  0.21721031  0.33100988  0.30036100     0.33400
H404        H  0.19799835  0.31577192  0.26505588     0.30100
H405        H  0.10307252  0.31239553  0.20816343     0.33400
H406        H  0.12528007  0.30480879  0.24547474     0.30100
H407        H  0.20619057  0.36044394  0.12442389     0.37900
H408        H  0.20666370  0.38344096  0.16262990     0.33400
C409        C  0.05344481  0.37125957  0.02329594    -0.20300
C410        C  0.03832262  0.35017189  0.03572586     0.35900
C411        C  0.01128424  0.35261019  0.03583093    -0.26300
C412        C  0.99911454  0.37568788  0.02391684     0.02300
C413        C  0.01423688  0.39685477  0.01239878     0.27100
C414        C  0.04107254  0.39449811  0.01263017    -0.25400
N415        N  0.05035220  0.32645666  0.04814720    -0.82800
H416        H  0.99960303  0.33646515  0.04524740     0.12900
C417        C  0.97054816  0.37762410  0.02331263     0.02300
N418        N  0.00224569  0.42051479  0.99937835    -0.81400
H419        H  0.05235051  0.41081444  0.00266612     0.17800
C420        C  0.95811211  0.39653225  0.04883581    -0.26200
C421        C  0.93122642  0.39945911  0.04835320     0.35800
C422        C  0.91642680  0.38302224  0.02190332    -0.20300
C423        C  0.92881405  0.36396609  0.99668641    -0.25500
C424        C  0.95575854  0.36138237  0.99653054     0.27200
H425        H  0.96947524  0.40891867  0.06952999     0.12900
N426        N  0.91887810  0.41856978  0.07551830    -0.82800
H427        H  0.91740409  0.35130002  0.97655420     0.17800
N428        N  0.96819541  0.34262247  0.96881195    -0.81400
H429        H  0.93251141  0.42914903  0.09273338     0.33400
H430        H  0.90787375  0.40901350  0.09883998     0.37900
H431        H  0.95459825  0.33223960  0.95115344     0.33400
H432        H  0.97921725  0.35249174  0.94591539     0.30100
H433        H  0.01606827  0.43429273  0.99211242     0.33400
H434        H  0.99228739  0.41694825  0.97047114     0.30100
H435        H  0.06080824  0.32999726  0.07658830     0.37900
H436        H  0.03650979  0.31287489  0.05617505     0.33400
C437        C  0.93357324  0.34921707  0.50142618    -0.20300
C438        C  0.94853726  0.34176014  0.53752740     0.35900
C439        C  0.97543719  0.34422870  0.53562475    -0.26300
C440        C  0.98759685  0.35375771  0.49823944     0.02300
C441        C  0.97279269  0.35993422  0.46134059     0.27100
C442        C  0.94583579  0.35791807  0.46349072    -0.25400
N443        N  0.93621908  0.33342014  0.57700576    -0.82800
H444        H  0.98693109  0.33949912  0.56385843     0.12900
C445        C  0.01562009  0.35879797  0.49924948     0.02300
N446        N  0.98519288  0.36858437  0.42215559    -0.81400
H447        H  0.93427693  0.36388150  0.43602235     0.17800
C448        C  0.03299582  0.33977563  0.48524649    -0.26200
C449        C  0.05969926  0.34384713  0.48654777     0.35800
C450        C  0.06922274  0.36755279  0.50235566    -0.20300
C451        C  0.05162082  0.38668062  0.51572283    -0.25500
C452        C  0.02495806  0.38247557  0.51459176     0.27200
H453        H  0.02565239  0.32164365  0.47344787     0.12900
N454        N  0.07709848  0.32395802  0.47192966    -0.82800
H455        H  0.05868659  0.40473090  0.52834749     0.17800
N456        N  0.00729131  0.40190281  0.53003724    -0.81400
H457        H  0.06701810  0.30767933  0.46205569     0.33400
H458        H  0.08668980  0.33068305  0.44428810     0.37900
H459        H  0.01720965  0.41799969  0.54110304     0.33400
H460        H  0.99629842  0.40788669  0.50349221     0.30100
H461        H  0.97163151  0.37201831  0.39781029     0.33400
H462        H  0.99379441  0.38616372  0.42906314     0.30100
H463        H  0.92717112  0.31606118  0.57014772     0.37900
H464        H  0.94985663  0.32957574  0.60105884     0.33400
C465        C  0.83542250  0.35220221  0.88211735    -0.20300
C466        C  0.85764531  0.33813510  0.86882429     0.35900
C467        C  0.86301227  0.33464109  0.82391323    -0.26300
C468        C  0.84645115  0.34423706  0.79185896     0.02300
C469        C  0.82374918  0.35717480  0.80497567     0.27100
C470        C  0.81849894  0.36099203  0.84971326    -0.25400
N471        N  0.87478955  0.32752239  0.90069215    -0.82800
H472        H  0.88022948  0.32434466  0.81374629     0.12900
C473        C  0.85327332  0.34127977  0.74461119     0.02300
N474        N  0.80636151  0.36693169  0.77269959    -0.81400
H475        H  0.80133000  0.37157612  0.85916972     0.17800
C476        C  0.83720923  0.32719003  0.71698529    -0.26200
C477        C  0.84170068  0.32577092  0.67157887     0.35800
C478        C  0.86289005  0.33888067  0.65304191    -0.20300
C479        C  0.87945298  0.35222852  0.68123176    -0.25500
C480        C  0.87481303  0.35365279  0.72660888     0.27200
H481        H  0.82070532  0.31766753  0.73092972     0.12900
N482        N  0.82400655  0.31210505  0.64427404    -0.82800
H483        H  0.89558939  0.36248903  0.66763169     0.17800
N484        N  0.89137938  0.36840961  0.75430464    -0.81400
H485        H  0.80866171  0.30507519  0.66266528     0.33400
H486        H  0.83373761  0.29607139  0.63155302     0.37900
H487        H  0.90634670  0.37634251  0.73612654     0.33400
H488        H  0.88059239  0.38379059  0.76696055     0.30100
H489        H  0.79045624  0.37580729  0.78759271     0.33400
H490        H  0.81595406  0.38115298  0.75532713     0.30100
H491        H  0.86476916  0.31335221  0.91747259     0.37900
H492        H  0.89040190  0.31830246  0.88546595     0.33400
C493        C  0.83412688  0.33779539  0.38406655    -0.20300
C494        C  0.81169003  0.34295537  0.35954150     0.35900
C495        C  0.81341486  0.34482984  0.31383025    -0.26300
C496        C  0.83690112  0.34128396  0.29194014     0.02300
C497        C  0.85882186  0.33407839  0.31584849     0.27100
C498        C  0.85724413  0.33242508  0.36162759    -0.25400
N499        N  0.78734642  0.34694043  0.38106913    -0.82800
H500        H  0.79654242  0.35008731  0.29528072     0.12900
C501        C  0.83876389  0.34750479  0.24472796     0.02300
N502        N  0.88275614  0.32918997  0.29352534    -0.81400
H503        H  0.87447342  0.32811811  0.37991096     0.17800
C504        C  0.85449736  0.36779690  0.23190065    -0.26200
C505        C  0.85592268  0.37560061  0.18812042     0.35800
C506        C  0.84178396  0.36221443  0.15588200    -0.20300
C507        C  0.82600256  0.34183406  0.16902809    -0.25500
C508        C  0.82420102  0.33449699  0.21305986     0.27200
H509        H  0.86523205  0.37808441  0.25655470     0.12900
N510        N  0.87173173  0.39700903  0.17666684    -0.82800
H511        H  0.81473639  0.33170349  0.14491218     0.17800
N512        N  0.80764366  0.31392260  0.22576518    -0.81400
H513        H  0.88227043  0.40327610  0.20359941     0.33400
H514        H  0.85943180  0.41221080  0.16876127     0.37900
H515        H  0.79803862  0.30649024  0.19865857     0.33400
H516        H  0.81924992  0.29914163  0.23772068     0.30100
H517        H  0.89709836  0.32425516  0.31573390     0.33400
H518        H  0.88019901  0.31320262  0.27324137     0.30100
H519        H  0.78237938  0.32969885  0.39595189     0.37900
H520        H  0.77295495  0.35093826  0.35840967     0.33400
C521        C  0.16008761  0.55412717  0.80845489    -0.20300
C522        C  0.15642287  0.55063190  0.85359280     0.35900
C523        C  0.15968838  0.52602766  0.87118350    -0.26300
C524        C  0.16709336  0.50510830  0.84456289     0.02300
C525        C  0.16989617  0.50859753  0.79917274     0.27100
C526        C  0.16589456  0.53298206  0.78150953    -0.25400
N527        N  0.14962234  0.57206862  0.88124577    -0.82800
H528        H  0.15668092  0.52317174  0.90582472     0.12900
C529        C  0.17113681  0.47950903  0.86436605     0.02300
N530        N  0.17769305  0.48752509  0.77147003    -0.81400
H531        H  0.16896936  0.53581239  0.74685468     0.17800
C532        C  0.15830067  0.45838228  0.84672900    -0.26200
C533        C  0.15974615  0.43440151  0.86641906     0.35800
C534        C  0.17307862  0.43158608  0.90619925    -0.20300
C535        C  0.18768913  0.45213115  0.92196782    -0.25500
C536        C  0.18706885  0.47606105  0.90107801     0.27200
H537        H  0.14619439  0.46065476  0.81835649     0.12900
N538        N  0.14641718  0.41324479  0.84710417    -0.82800
H539        H  0.19811084  0.45012919  0.95226652     0.17800
N540        N  0.20186363  0.49707214  0.91772643    -0.81400
H541        H  0.15351050  0.41045550  0.81538119     0.33400
H542        H  0.12695147  0.41813340  0.84501025     0.37900
H543        H  0.21242085  0.49141283  0.94498098     0.33400
H544        H  0.21520548  0.50197798  0.89363119     0.30100
H545        H  0.17865074  0.49320159  0.73892244     0.33400
H546        H  0.19629248  0.48213838  0.78039859     0.30100
H547        H  0.13156985  0.57873954  0.87149233     0.37900
H548        H  0.14766565  0.56623961  0.91367029     0.33400
C549        C  0.20991808  0.57155822  0.67274121    -0.20300
C550        C  0.20351130  0.56765567  0.62832274     0.35900
C551        C  0.20604485  0.54306560  0.60965209    -0.26300
C552        C  0.21504640  0.52230239  0.63406298     0.02300
C553        C  0.22457179  0.52674458  0.67639477     0.27100
C554        C  0.22206797  0.55142421  0.69530682    -0.25400
N555        N  0.19277611  0.58823561  0.60317415    -0.82800
H556        H  0.19898616  0.53963196  0.57699417     0.12900
C557        C  0.20849752  0.49601685  0.61897957     0.02300
N558        N  0.23541853  0.50590865  0.70080003    -0.81400
H559        H  0.22739890  0.55420844  0.72912653     0.17800
C560        C  0.22696712  0.47967322  0.59959025    -0.26200
C561        C  0.21993530  0.45547820  0.58241227     0.35800
C562        C  0.19417836  0.44736011  0.58610614    -0.20300
C563        C  0.17619225  0.46339541  0.60738464    -0.25500
C564        C  0.18288473  0.48777827  0.62274354     0.27200
H565        H  0.24660720  0.48614012  0.59663654     0.12900
N566        N  0.23863921  0.43939009  0.56067510    -0.82800
H567        H  0.15626667  0.45765950  0.60928670     0.17800
N568        N  0.16341878  0.50487958  0.63997571    -0.81400
H569        H  0.25661343  0.44815735  0.56058863     0.33400
H570        H  0.24054669  0.42261770  0.57887653     0.37900
H571        H  0.14548943  0.49603263  0.64029980     0.33400
H572        H  0.16790760  0.50906625  0.67239441     0.30100
H573        H  0.24124962  0.51227565  0.73161418     0.33400
H574        H  0.22103247  0.49243983  0.70602312     0.30100
H575        H  0.20693978  0.60218713  0.60013959     0.37900
H576        H  0.18846961  0.58203347  0.57154113     0.33400
C577        C  0.16400229  0.66277337  0.89165305    -0.20300
C578        C  0.18561763  0.66823110  0.91773855     0.35900
C579        C  0.18253807  0.67121794  0.96309366    -0.26300
C580        C  0.15837530  0.66884084  0.98302046     0.02300
C581        C  0.13658741  0.66461453  0.95690260     0.27100
C582        C  0.13957621  0.66193554  0.91131274    -0.25400
N583        N  0.21065189  0.67048268  0.89813874    -0.82800
H584        H  0.19919026  0.67463937  0.98331021     0.12900
C585        C  0.15689530  0.66778012  0.03142703     0.02300
N586        N  0.11172503  0.66204810  0.97694782    -0.81400
H587        H  0.12298039  0.65783686  0.89134871     0.17800
C588        C  0.14438348  0.68727610  0.05553315    -0.26200
C589        C  0.14355995  0.68665775  0.10162201     0.35800
C590        C  0.15549915  0.66609280  0.12371557    -0.20300
C591        C  0.16772481  0.64657854  0.09923751    -0.25500
C592        C  0.16833557  0.64708330  0.05350367     0.27200
H593        H  0.13557697  0.70312045  0.03835056     0.12900
N594        N  0.13108137  0.70695584  0.12590841    -0.82800
H595        H  0.17648203  0.63050340  0.11589528     0.17800
N596        N  0.18037281  0.62650211  0.02919252    -0.81400
H597        H  0.12324951  0.72053717  0.10474570     0.33400
H598        H  0.14515053  0.71636878  0.14401630     0.37900
H599        H  0.18791838  0.61272572  0.05025281     0.33400
H600        H  0.16608501  0.61740227  0.01107851     0.30100
H601        H  0.09771611  0.65893065  0.95323273     0.33400
H602        H  0.11221628  0.64563134  0.99629004     0.30100
H603        H  0.21014913  0.68643134  0.87775768     0.37900
H604        H  0.22448354  0.67428076  0.92187260     0.33400
C605        C  0.14906150  0.67073019  0.62096827    -0.20300
C606        C  0.16849296  0.66615561  0.58970198     0.35900
C607        C  0.16353943  0.67110541  0.54545961    -0.26300
C608        C  0.13955260  0.68071035  0.53197777     0.02300
C609        C  0.12058965  0.68654401  0.56387162     0.27100
C610        C  0.12548178  0.68123862  0.60803965    -0.25400
N611        N  0.19261457  0.65512765  0.60277632    -0.82800
H612        H  0.17800965  0.66621632  0.52115158     0.12900
C613        C  0.13380782  0.68174560  0.48432211     0.02300
N614        N  0.09622079  0.69715542  0.55111819    -0.81400
H615        H  0.11052862  0.68441146  0.63231915     0.17800
C616        C  0.11248716  0.66843035  0.46826513    -0.26200
C617        C  0.10841403  0.66555312  0.42327609     0.35800
C618        C  0.12610211  0.67588776  0.39321959    -0.20300
C619        C  0.14654984  0.69060427  0.40922531    -0.25500
C620        C  0.15055561  0.69367168  0.45441620     0.27200
H621        H  0.09946869  0.65915349  0.49075487     0.12900
N622        N  0.08651831  0.65162786  0.40835600    -0.82800
H623        H  0.16023057  0.69868759  0.38649951     0.17800
N624        N  0.17194242  0.70826968  0.47007072    -0.81400
H625        H  0.07001982  0.66067787  0.42083327     0.33400
H626        H  0.08747327  0.63315173  0.42128086     0.37900
H627        H  0.18256277  0.71556235  0.44398057     0.33400
H628        H  0.16451737  0.72405277  0.48738907     0.30100
H629        H  0.08435211  0.70007509  0.57838530     0.33400
H630        H  0.09963711  0.71522301  0.53786107     0.30100
H631        H  0.20157335  0.66833528  0.62336511     0.37900
H632        H  0.20474552  0.65251376  0.57573617     0.33400
C633        C  0.17893280  0.58104587  0.35153458    -0.20300
C634        C  0.17081127  0.58013640  0.39576951     0.35900
C635        C  0.16857617  0.55648876  0.41634059    -0.26300
C636        C  0.17473180  0.53354292  0.39430242     0.02300
C637        C  0.18602558  0.53465796  0.35230931     0.27100
C638        C  0.18796095  0.55842744  0.33128546    -0.25400
N639        N  0.16394545  0.60273425  0.42035760    -0.82800
H640        H  0.16034680  0.55602482  0.44888656     0.12900
C641        C  0.16750651  0.50867465  0.41429330     0.02300
N642        N  0.19450322  0.51154328  0.33055734    -0.81400
H643        H  0.19446437  0.55890822  0.29763269     0.17800
C644        C  0.15338250  0.49080779  0.38966747    -0.26200
C645        C  0.14645555  0.46699063  0.40719451     0.35800
C646        C  0.15264862  0.46154809  0.45073191    -0.20300
C647        C  0.16560146  0.47977258  0.47599601    -0.25500
C648        C  0.17372624  0.50297324  0.45797064     0.27200
H649        H  0.14798844  0.49534798  0.35650049     0.12900
N650        N  0.13350754  0.44820886  0.38098113    -0.82800
H651        H  0.17094437  0.47511730  0.50915118     0.17800
N652        N  0.18909212  0.52026139  0.48334566    -0.81400
H653        H  0.13041105  0.45516805  0.34952483     0.33400
H654        H  0.11539656  0.44532367  0.39493920     0.37900
H655        H  0.19223542  0.51289151  0.51448563     0.33400
H656        H  0.20711221  0.52132945  0.46822948     0.30100
H657        H  0.20208830  0.51563761  0.29972270     0.33400
H658        H  0.20951591  0.50377692  0.34883402     0.30100
H659        H  0.17857876  0.61619167  0.41692943     0.37900
H660        H  0.14674398  0.61046025  0.40890552     0.33400
C661        C  0.14000272  0.44948051  0.06986850    -0.20300
C662        C  0.12090003  0.46834062  0.06220899     0.35900
C663        C  0.12022741  0.49086667  0.08759106    -0.26300
C664        C  0.13804949  0.49484183  0.12092892     0.02300
C665        C  0.15671432  0.47591245  0.12963674     0.27100
C666        C  0.15747776  0.45340554  0.10413886    -0.25400
N667        N  0.10199952  0.46472097  0.02900553    -0.82800
H668        H  0.10578030  0.50540948  0.08111510     0.12900
C669        C  0.13778991  0.51940347  0.14535169     0.02300
N670        N  0.17496391  0.47979330  0.16405514    -0.81400
H671        H  0.17214144  0.43910048  0.11065256     0.17800
C672        C  0.12766611  0.52038829  0.18777641    -0.26200
C673        C  0.12885352  0.54298037  0.21309857     0.35800
C674        C  0.14035020  0.56514170  0.19521106    -0.20300
C675        C  0.14976553  0.56408592  0.15203554    -0.25500
C676        C  0.14872203  0.54143661  0.12708654     0.27200
H677        H  0.11932152  0.50325389  0.20145971     0.12900
N678        N  0.11890331  0.54316997  0.25699567    -0.82800
H679        H  0.15840120  0.58090366  0.13777484     0.17800
N680        N  0.15903142  0.54057115  0.08343566    -0.81400
H681        H  0.11017040  0.52572403  0.26417219     0.33400
H682        H  0.13452555  0.54476638  0.27811072     0.37900
H683        H  0.16619163  0.55847796  0.07462947     0.33400
H684        H  0.17468667  0.52787697  0.08326887     0.30100
H685        H  0.18729251  0.46394965  0.16654430     0.33400
H686        H  0.18639863  0.49536153  0.15548297     0.30100
H687        H  0.10327623  0.47995382  0.00713945     0.37900
H688        H  0.08385615  0.46547901  0.04377435     0.33400
C689        C  0.81443431  0.58379553  0.83431750    -0.20300
C690        C  0.82104805  0.58342243  0.87891685     0.35900
C691        C  0.82111120  0.56000464  0.90140211    -0.26300
C692        C  0.81506919  0.53695797  0.87993141     0.02300
C693        C  0.80581095  0.53788913  0.83662591     0.27100
C694        C  0.80467951  0.56150744  0.81490150    -0.25400
N695        N  0.82884546  0.60662145  0.90049433    -0.82800
H696        H  0.82704042  0.55953116  0.93522913     0.12900
C697        C  0.81903906  0.51201825  0.90263075     0.02300
N698        N  0.79945723  0.51466270  0.81366767    -0.81400
H699        H  0.79948562  0.56174064  0.78070049     0.17800
C700        C  0.79878468  0.49459299  0.90434745    -0.26200
C701        C  0.80167945  0.47061978  0.92419473     0.35800
C702        C  0.82532558  0.46392196  0.94389482    -0.20300
C703        C  0.84555220  0.48150563  0.94302105    -0.25500
C704        C  0.84283945  0.50528976  0.92178143     0.27200
H705        H  0.78041727  0.49986034  0.89043467     0.12900
N706        N  0.78032871  0.45334489  0.92541096    -0.82800
H707        H  0.86360617  0.47648042  0.95828672     0.17800
N708        N  0.86422139  0.52246130  0.91909138    -0.81400
H709        H  0.76461656  0.46091379  0.90857471     0.33400
H710        H  0.77451327  0.45180436  0.95792392     0.37900
H711        H  0.88025829  0.51469262  0.93472330     0.33400
H712        H  0.86917912  0.52418049  0.88611525     0.30100
H713        H  0.79317771  0.51867077  0.78208528     0.33400
H714        H  0.81633363  0.50378706  0.81023612     0.30100
H715        H  0.81336048  0.61949085  0.89956250     0.37900
H716        H  0.83229509  0.60311942  0.93347993     0.33400
C717        C  0.07840714  0.64346529  0.75154395    -0.20300
C718        C  0.06518698  0.66675907  0.74279627     0.35900
C719        C  0.03818106  0.66703434  0.74131113    -0.26300
C720        C  0.02392440  0.64487224  0.74943168     0.02300
C721        C  0.03700346  0.62199535  0.76026719     0.27100
C722        C  0.06400972  0.62146432  0.76068961    -0.25400
N723        N  0.07905111  0.68987921  0.73389152    -0.82800
H724        H  0.02816645  0.68458770  0.73289502     0.12900
C725        C  0.99541509  0.64563422  0.74476692     0.02300
N726        N  0.02277420  0.59933426  0.77064156    -0.81400
H727        H  0.07386243  0.60364241  0.76798465     0.17800
C728        C  0.98346939  0.62776815  0.71710703    -0.26200
C729        C  0.95660458  0.62741885  0.71231606     0.35800
C730        C  0.94136885  0.64577777  0.73472238    -0.20300
C731        C  0.95336432  0.66422158  0.76116147    -0.25500
C732        C  0.98012722  0.66406424  0.76710267     0.27200
H733        H  0.99520041  0.61394340  0.69925259     0.12900
N734        N  0.94476952  0.60853747  0.68479045    -0.82800
H735        H  0.94166323  0.67810284  0.77895343     0.17800
N736        N  0.99172216  0.68205917  0.79665430    -0.81400
H737        H  0.95866064  0.59634980  0.67084023     0.33400
H738        H  0.93597808  0.61821797  0.65905290     0.37900
H739        H  0.97780343  0.69425159  0.81051126     0.33400
H740        H  0.99969037  0.67161860  0.82231087     0.30100
H741        H  0.03521880  0.58406677  0.77754144     0.33400
H742        H  0.01230977  0.60316204  0.79921544     0.30100
H743        H  0.08763552  0.69572988  0.76304109     0.37900
H744        H  0.06647632  0.70469663  0.72522000     0.33400
C745        C  0.84797846  0.55751150  0.69149433    -0.20300
C746        C  0.85018814  0.53609549  0.71939745     0.35900
C747        C  0.84150858  0.51208795  0.70497217    -0.26300
C748        C  0.83317036  0.50811127  0.66189855     0.02300
C749        C  0.83217453  0.52922539  0.63335454     0.27100
C750        C  0.83880281  0.55372278  0.64887082    -0.25400
N751        N  0.86162452  0.53844915  0.76186764    -0.82800
H752        H  0.84199124  0.49609212  0.72728345     0.12900
C753        C  0.82839216  0.48138892  0.64606967     0.02300
N754        N  0.82489351  0.52571899  0.58851906    -0.81400
H755        H  0.83711500  0.56996775  0.62723503     0.17800
C756        C  0.80671889  0.47560079  0.62041999    -0.26200
C757        C  0.80417878  0.45141523  0.59974691     0.35800
C758        C  0.82302949  0.43234603  0.60675917    -0.20300
C759        C  0.84276836  0.43738457  0.63684352    -0.25500
C760        C  0.84646015  0.46176709  0.65450799     0.27200
H761        H  0.79232231  0.49032612  0.61500724     0.12900
N762        N  0.78314486  0.44654639  0.57081615    -0.82800
H763        H  0.85719540  0.42289281  0.64361094     0.17800
N764        N  0.86953027  0.46699105  0.67856015    -0.81400
H765        H  0.77113668  0.46266257  0.56894479     0.33400
H766        H  0.77218845  0.43192511  0.58451489     0.37900
H767        H  0.88077522  0.45044028  0.68201200     0.33400
H768        H  0.88044562  0.47979606  0.66021807     0.30100
H769        H  0.82495042  0.54319326  0.57204325     0.33400
H770        H  0.83890673  0.51413800  0.57348603     0.30100
H771        H  0.84969603  0.54993531  0.78129489     0.37900
H772        H  0.86264573  0.52063452  0.77723841     0.33400
C773        C  0.85362976  0.43927756  0.44304927    -0.20300
C774        C  0.85910463  0.46391128  0.46009967     0.35900
C775        C  0.85792708  0.48547133  0.43250193    -0.26300
C776        C  0.85134124  0.48317244  0.38815948     0.02300
C777        C  0.84664282  0.45846597  0.37085057     0.27100
C778        C  0.84789075  0.43692024  0.39833542    -0.25400
N779        N  0.86444574  0.46724912  0.50576849    -0.82800
H780        H  0.86177298  0.50433537  0.44584878     0.12900
C781        C  0.84838434  0.50683829  0.36083901     0.02300
N782        N  0.83980333  0.45538884  0.32572127    -0.81400
H783        H  0.84364816  0.41815023  0.38492897     0.17800
C784        C  0.86241242  0.50928042  0.32174427    -0.26200
C785        C  0.85960753  0.53103175  0.29488843     0.35800
C786        C  0.84280413  0.55128758  0.30777886    -0.20300
C787        C  0.82868213  0.54871208  0.34676019    -0.25500
C788        C  0.83117032  0.52677421  0.37316595     0.27200
H789        H  0.87549962  0.49399810  0.31194119     0.12900
N790        N  0.87329045  0.53224511  0.25406128    -0.82800
H791        H  0.81555410  0.56393008  0.35671476     0.17800
N792        N  0.81593986  0.52449248  0.41221786    -0.81400
H793        H  0.88483141  0.51592395  0.24948582     0.33400
H794        H  0.85967629  0.53198366  0.22910408     0.37900
H795        H  0.80430156  0.54073570  0.41684381     0.33400
H796        H  0.80358971  0.50900408  0.40780486     0.30100
H797        H  0.83707831  0.43604313  0.31803981     0.33400
H798        H  0.82211375  0.46460789  0.32119122     0.30100
H799        H  0.88233657  0.45878610  0.51174944     0.37900
H800        H  0.86630144  0.48669230  0.51355722     0.33400
C801        C  0.92321014  0.63815312  0.24089893    -0.20300
C802        C  0.93895506  0.63229932  0.20427140     0.35900
C803        C  0.96543348  0.63645335  0.20662942    -0.26300
C804        C  0.97654131  0.64662425  0.24436577     0.02300
C805        C  0.96091951  0.65325004  0.28052122     0.27100
C806        C  0.93426868  0.64913512  0.27830597    -0.25400
N807        N  0.92799492  0.62264923  0.16445956    -0.82800
H808        H  0.97762261  0.63161082  0.17889700     0.12900
C809        C  0.00484203  0.64809756  0.24613392     0.02300
N810        N  0.97223049  0.66366809  0.31941737    -0.81400
H811        H  0.92216567  0.65406132  0.30608425     0.17800
C812        C  0.01708024  0.67193426  0.24735950    -0.26200
C813        C  0.04410810  0.67351725  0.24718749     0.35800
C814        C  0.05900373  0.65067517  0.24617105    -0.20300
C815        C  0.04636516  0.62693393  0.24399852    -0.25500
C816        C  0.01959089  0.62542301  0.24448040     0.27200
H817        H  0.00548886  0.68928917  0.24806744     0.12900
N818        N  0.05628808  0.69811529  0.24853210    -0.82800
H819        H  0.05736783  0.60921394  0.24319774     0.17800
N820        N  0.00720410  0.60087712  0.24386121    -0.81400
H821        H  0.04254489  0.71282744  0.25034731     0.33400
H822        H  0.06602848  0.70040145  0.21888436     0.37900
H823        H  0.02078317  0.58599880  0.24238774     0.33400
H824        H  0.99736059  0.59894427  0.27348732     0.30100
H825        H  0.95807492  0.66759890  0.34294264     0.33400
H826        H  0.98423921  0.64954666  0.33249108     0.30100
H827        H  0.91626648  0.63711392  0.15176683     0.37900
H828        H  0.94229920  0.61899440  0.14104726     0.33400
C829        C  0.84559748  0.66749527  0.60317116    -0.20300
C830        C  0.86711060  0.66552616  0.57500610     0.35900
C831        C  0.86361901  0.66795393  0.52957840    -0.26300
C832        C  0.83921033  0.67284587  0.51192871     0.02300
C833        C  0.81814288  0.67680577  0.54051391     0.27100
C834        C  0.82150004  0.67375904  0.58562285    -0.25400
N835        N  0.89203819  0.65945242  0.59217016    -0.82800
H836        H  0.87978593  0.66478009  0.50770823     0.12900
C837        C  0.83525418  0.67024446  0.46388406     0.02300
N838        N  0.79325566  0.68323052  0.52343507    -0.81400
H839        H  0.80505248  0.67586407  0.60727169     0.17800
C840        C  0.81712147  0.65255012  0.44913128    -0.26200
C841        C  0.81357850  0.64765644  0.40454053     0.35800
C842        C  0.82926791  0.66012114  0.37333711    -0.20300
C843        C  0.84694542  0.67848760  0.38800583    -0.25500
C844        C  0.84997172  0.68378856  0.43297320     0.27200
H845        H  0.80588427  0.64204478  0.47276840     0.12900
N846        N  0.79417457  0.62982788  0.39109552    -0.82800
H847        H  0.85884518  0.68831448  0.36445800     0.17800
N848        N  0.86801660  0.70268767  0.44737811    -0.81400
H849        H  0.78023909  0.64016452  0.37394717     0.33400
H850        H  0.78484399  0.62196346  0.41806013     0.37900
H851        H  0.87736179  0.71086698  0.42066922     0.33400
H852        H  0.85757161  0.71743670  0.46277384     0.30100
H853        H  0.77977299  0.68525922  0.54866942     0.33400
H854        H  0.79468274  0.70115117  0.50859339     0.30100
H855        H  0.89797707  0.67521727  0.61066977     0.37900
H856        H  0.90546415  0.65730334  0.56684874     0.33400
C857        C  0.87450152  0.67336301  0.87169075    -0.20300
C858        C  0.89645676  0.66784804  0.89685285     0.35900
C859        C  0.89436819  0.66726022  0.94254695    -0.26300
C860        C  0.87068279  0.67156316  0.96355284     0.02300
C861        C  0.84924433  0.67925603  0.93861953     0.27100
C862        C  0.85150426  0.68045330  0.89282150    -0.25400
N863        N  0.92046174  0.66158865  0.87569457    -0.82800
H864        H  0.91093833  0.66193855  0.96181299     0.12900
C865        C  0.86805176  0.66499238  0.01058476     0.02300
N866        N  0.82490752  0.68423281  0.95957234    -0.81400
H867        H  0.83463105  0.68454414  0.87344942     0.17800
C868        C  0.85994340  0.68363226  0.04107378    -0.26200
C869        C  0.85678778  0.67759599  0.08557356     0.35800
C870        C  0.86119674  0.65213851  0.09957944    -0.20300
C871        C  0.86943237  0.63361949  0.06892065    -0.25500
C872        C  0.87312806  0.63978113  0.02482730     0.27200
H873        H  0.85621851  0.70299310  0.03009115     0.12900
N874        N  0.84834655  0.69703857  0.11606512    -0.82800
H875        H  0.87310283  0.61415699  0.07946471     0.17800
N876        N  0.88189666  0.62044674  0.99434656    -0.81400
H877        H  0.84414424  0.71411178  0.09987268     0.33400
H878        H  0.86378140  0.70106706  0.13660573     0.37900
H879        H  0.88465328  0.60291050  0.00994070     0.33400
H880        H  0.86738090  0.61768110  0.97146312     0.30100
H881        H  0.81115909  0.68971629  0.93662955     0.33400
H882        H  0.81859378  0.66702407  0.97297985     0.30100
H883        H  0.92644493  0.67787622  0.85893315     0.37900
H884        H  0.93462188  0.65755761  0.89875567     0.33400
C885        C  0.77738822  0.44825092  0.08583468    -0.20300
C886        C  0.78247221  0.45441943  0.12998175     0.35900
C887        C  0.77502926  0.47852656  0.14655651    -0.26300
C888        C  0.76256043  0.49650288  0.12006975     0.02300
C889        C  0.75429730  0.48901430  0.07820216     0.27100
C890        C  0.76161471  0.46479873  0.06154632    -0.25400
N891        N  0.79677421  0.43696587  0.15685865    -0.82800
H892        H  0.78119433  0.48417904  0.17892791     0.12900
C893        C  0.76416058  0.52395581  0.13275490     0.02300
N894        N  0.74011362  0.50676447  0.05178757    -0.81400
H895        H  0.75692459  0.45992010  0.02817218     0.17800
C896        C  0.77904692  0.53996700  0.10621321    -0.26200
C897        C  0.78886696  0.56303771  0.12257308     0.35800
C898        C  0.78312673  0.57043850  0.16580038    -0.20300
C899        C  0.76572116  0.55611933  0.19053195    -0.25500
C900        C  0.75635426  0.53267498  0.17453614     0.27200
H901        H  0.78515523  0.53327027  0.07418614     0.12900
N902        N  0.80616368  0.57807904  0.09673319    -0.82800
H903        H  0.76149835  0.56190773  0.22389407     0.17800
N904        N  0.74052027  0.51681371  0.20155688    -0.81400
H905        H  0.80873193  0.56983655  0.06576624     0.33400
H906        H  0.79748990  0.59598886  0.09203795     0.37900
H907        H  0.73695509  0.52575003  0.23169040     0.33400
H908        H  0.72276815  0.51501332  0.18612683     0.30100
H909        H  0.73584228  0.49850819  0.02149457     0.33400
H910        H  0.72256617  0.51038105  0.06751570     0.30100
H911        H  0.78578743  0.42043854  0.16044266     0.37900
H912        H  0.79929287  0.44462462  0.18817815     0.33400
C913        C  0.68144699  0.22935055  0.62849346    -0.20300
C914        C  0.70657625  0.23023117  0.64535347     0.35900
C915        C  0.72360547  0.24934462  0.63155147    -0.26300
C916        C  0.71631392  0.26727118  0.60000699     0.02300
C917        C  0.69105747  0.26684309  0.58357784     0.27100
C918        C  0.67371783  0.24815835  0.59857066    -0.25400
N919        N  0.71511249  0.21122395  0.67559070    -0.82800
H920        H  0.74302408  0.24948226  0.64408770     0.12900
C921        C  0.73604211  0.28486930  0.58205609     0.02300
N922        N  0.68356324  0.28457056  0.55023834    -0.81400
H923        H  0.65472151  0.24712020  0.58443751     0.17800
C924        C  0.74948576  0.27764736  0.54404929    -0.26200
C925        C  0.76958643  0.29273284  0.52750890     0.35800
C926        C  0.77636340  0.31567988  0.54940506    -0.20300
C927        C  0.76239716  0.32319830  0.58687116    -0.25500
C928        C  0.74244079  0.30790464  0.60358920     0.27200
H929        H  0.74447717  0.25993035  0.52759747     0.12900
N930        N  0.78308588  0.28483567  0.48850082    -0.82800
H931        H  0.76757904  0.34067674  0.60387651     0.17800
N932        N  0.72900237  0.31534710  0.64285156    -0.81400
H933        H  0.77588081  0.26751562  0.47660188     0.33400
H934        H  0.77945841  0.29858442  0.46460473     0.37900
H935        H  0.73622172  0.33258298  0.65512834     0.33400
H936        H  0.70984770  0.31887800  0.63463339     0.30100
H937        H  0.66457852  0.28135389  0.54079062     0.33400
H938        H  0.68403333  0.30299245  0.56381500     0.30100
H939        H  0.73106169  0.20175531  0.66192082     0.37900
H940        H  0.72105782  0.22060621  0.70400914     0.33400
C941        C  0.67503071  0.23656377  0.10695813    -0.20300
C942        C  0.70046244  0.23880115  0.12240973     0.35900
C943        C  0.71642738  0.25799322  0.10559607    -0.26300
C944        C  0.70765004  0.27490824  0.07358951     0.02300
C945        C  0.68244203  0.27256880  0.05758468     0.28700
C946        C  0.66625715  0.25360535  0.07486530    -0.25400
N947        N  0.70994152  0.22176789  0.15540088    -0.82800
H948        H  0.73589690  0.25981614  0.11747467     0.12900
C949        C  0.72559639  0.29446841  0.05676327     0.02300
N950        N  0.67372305  0.28878813  0.02286724    -0.81400
H951        H  0.64692083  0.25168397  0.06244640     0.17800
C952        C  0.74355926  0.28736424  0.02449222    -0.26200
C953        C  0.76274870  0.30443142  0.01090495     0.35800
C954        C  0.76389905  0.32912988  0.02999829    -0.20300
C955        C  0.74543628  0.33644594  0.06144261    -0.25500
C956        C  0.72648427  0.31922980  0.07546224     0.27200
H957        H  0.74287274  0.26823303  0.01051974     0.12900
N958        N  0.78107102  0.29677659  0.97788600    -0.82800
H959        H  0.74642695  0.35532527  0.07633128     0.17800
N960        N  0.70896358  0.32633100  0.11004680    -0.81400
H961        H  0.77763380  0.27801348  0.96734045     0.33400
H962        H  0.77824856  0.30858274  0.95088628     0.37900
H963        H  0.71271551  0.34489989  0.12125040     0.33400
H964        H  0.69044691  0.32679189  0.09715669     0.30100
H965        H  0.65495145  0.28410625  0.01401501     0.33400
H966        H  0.67301792  0.30761299  0.03461590     0.30100
H967        H  0.69929781  0.22530079  0.18391999     0.37900
H968        H  0.72906644  0.22580937  0.16275910     0.33400
C969        C  0.64441663  0.14675854  0.00127635    -0.20300
C970        C  0.63003946  0.13076796  0.97326944     0.35900
C971        C  0.63570677  0.12983774  0.92847256    -0.26300
C972        C  0.65548882  0.14454802  0.91052460     0.02300
C973        C  0.67012322  0.16036457  0.93822269     0.27100
C974        C  0.66449285  0.16126548  0.98325795    -0.25400
N975        N  0.60954225  0.11545915  0.98991364    -0.82800
H976        H  0.62418069  0.11785543  0.90734073     0.12900
C977        C  0.65958627  0.14393311  0.86238558     0.02300
N978        N  0.69052625  0.17553187  0.92046078    -0.81400
H979        H  0.67557242  0.17375927  0.00419658     0.17800
C980        C  0.65656230  0.16660387  0.83849484    -0.26200
C981        C  0.65684658  0.16621419  0.79256193     0.35800
C982        C  0.66008668  0.14266221  0.77018900    -0.20300
C983        C  0.66393657  0.12011604  0.79395926    -0.25500
C984        C  0.66412783  0.12057690  0.83989821     0.27200
H985        H  0.65277198  0.18446925  0.85574277     0.12900
N986        N  0.65187881  0.18929440  0.76856997    -0.82800
H987        H  0.66613935  0.10204038  0.77658661     0.17800
N988        N  0.66831989  0.09737394  0.86391582    -0.81400
H989        H  0.64873644  0.20476425  0.78988199     0.33400
H990        H  0.66846170  0.19348455  0.75066638     0.37900
H991        H  0.67127432  0.08185851  0.84259076     0.33400
H992        H  0.68531863  0.09955075  0.88150082     0.30100
H993        H  0.69930917  0.18627112  0.94505362     0.33400
H994        H  0.70451988  0.16291034  0.90801019     0.30100
H995        H  0.61358125  0.09627105  0.98225660     0.37900
H996        H  0.59265158  0.12074342  0.97389041     0.33400
C997        C  0.65394817  0.17656525  0.26993833    -0.20300
C998        C  0.67505661  0.16177888  0.28473007     0.35900
C999        C  0.67908914  0.15899561  0.32990578    -0.26300
C1000       C  0.66241010  0.17053630  0.36050393     0.02300
C1001       C  0.64126232  0.18515033  0.34573109     0.27100
C1002       C  0.63749009  0.18830383  0.30073367    -0.25400
N1003       N  0.69238736  0.14977414  0.25393255    -0.82800
H1004       H  0.69534974  0.14788641  0.34135724     0.12900
C1005       C  0.66689288  0.16743430  0.40808887     0.02300
N1006       N  0.62335950  0.19627867  0.37658949    -0.81400
H1007       H  0.62100847  0.19922546  0.28964014     0.17800
C1008       C  0.66983279  0.18949092  0.43394443    -0.26200
C1009       C  0.66895039  0.18815149  0.47951189     0.35800
C1010       C  0.66507092  0.16437730  0.49990353    -0.20300
C1011       C  0.66500477  0.14191255  0.47439469    -0.25500
C1012       C  0.66574959  0.14321810  0.42840213     0.27200
H1013       H  0.67157531  0.20804638  0.41859570     0.12900
N1014       N  0.67133664  0.21110910  0.50513597    -0.82800
H1015       H  0.66243923  0.12357756  0.49012738     0.17800
N1016       N  0.66406890  0.12025631  0.40237348    -0.81400
H1017       H  0.65676930  0.22387669  0.49599204     0.33400
H1018       H  0.68898881  0.21943595  0.49765433     0.37900
H1019       H  0.66354350  0.10409302  0.42231410     0.33400
H1020       H  0.64661701  0.12087345  0.38572240     0.30100
H1021       H  0.60888182  0.20640565  0.36052037     0.33400
H1022       H  0.61438582  0.18123305  0.39293350     0.30100
H1023       H  0.70163584  0.16434103  0.23684680     0.37900
H1024       H  0.70669869  0.13944331  0.27010727     0.33400
C1025       C  0.68620832  0.78734569  0.67513633    -0.20300
C1026       C  0.70494382  0.79295584  0.70712915     0.35900
C1027       C  0.72326163  0.77437324  0.71865395    -0.26300
C1028       C  0.72348726  0.75001703  0.69922261     0.02300
C1029       C  0.70463481  0.74391786  0.66804408     0.27100
C1030       C  0.68605213  0.76255227  0.65655693    -0.25400
N1031       N  0.70559845  0.81753460  0.72820008    -0.82800
H1032       H  0.73772224  0.77914611  0.74262588     0.12900
C1033       C  0.74479065  0.73195430  0.70981632     0.02300
N1034       N  0.70485216  0.71907019  0.64743871    -0.81400
H1035       H  0.67191666  0.75791584  0.63200080     0.17800
C1036       C  0.74008477  0.70993627  0.73457370    -0.26200
C1037       C  0.76025078  0.69297545  0.74587464     0.35800
C1038       C  0.78564782  0.69822854  0.73202984    -0.20300
C1039       C  0.79011572  0.72051934  0.70758698    -0.25500
C1040       C  0.77002561  0.73719557  0.69604192     0.27200
H1041       H  0.72063680  0.70608954  0.74527902     0.12900
N1042       N  0.75496129  0.67052605  0.77114263    -0.82800
H1043       H  0.80932844  0.72460722  0.69596956     0.17800
N1044       N  0.77505518  0.75929463  0.66967264    -0.81400
H1045       H  0.73533305  0.66935975  0.77820163     0.33400
H1046       H  0.76431591  0.67258991  0.80104722     0.37900
H1047       H  0.79463485  0.76050186  0.66224348     0.33400
H1048       H  0.76557595  0.75671967  0.63998739     0.30100
H1049       H  0.68974356  0.71758381  0.62523860     0.33400
H1050       H  0.72184404  0.71738573  0.62925374     0.30100
H1051       H  0.72360627  0.82557201  0.72232688     0.37900
H1052       H  0.70363162  0.81483637  0.76183231     0.33400
C1053       C  0.63554953  0.93628773  0.62411744    -0.20300
C1054       C  0.61496745  0.95354771  0.63193312     0.35900
C1055       C  0.61851329  0.97979637  0.62577123    -0.26300
C1056       C  0.64202105  0.98933714  0.61069189     0.02300
C1057       C  0.66228556  0.97210891  0.60072697     0.27100
C1058       C  0.65889194  0.94574991  0.60775255    -0.25400
N1059       N  0.59036407  0.94459991  0.64606421    -0.82800
H1060       H  0.60285343  0.99288894  0.63368642     0.12900
C1061       C  0.64521019  0.01751097  0.60809557     0.02300
N1062       N  0.68622486  0.98147258  0.58387088    -0.81400
H1063       H  0.67474509  0.93264320  0.60127082     0.17800
C1064       C  0.66508442  0.02926305  0.63146614    -0.26200
C1065       C  0.66621255  0.05607905  0.63577791     0.35800
C1066       C  0.64657894  0.07127858  0.61729274    -0.20300
C1067       C  0.62767448  0.05954196  0.59167405    -0.25500
C1068       C  0.62696740  0.03286240  0.58643732     0.27200
H1069       H  0.67906787  0.01743534  0.64815019     0.12900
N1070       N  0.68620523  0.06767278  0.66113365    -0.82800
H1071       H  0.61289514  0.07123126  0.57669043     0.17800
N1072       N  0.60734492  0.02119323  0.56031990    -0.81400
H1073       H  0.69822251  0.05363375  0.67439909     0.33400
H1074       H  0.69764361  0.07818235  0.63970218     0.37900
H1075       H  0.59524554  0.03516594  0.54698739     0.33400
H1076       H  0.61644127  0.01185211  0.53410337     0.30100
H1077       H  0.69917696  0.96633970  0.57842083     0.33400
H1078       H  0.68254733  0.98960688  0.55343356     0.30100
H1079       H  0.58582025  0.95353907  0.67583559     0.37900
H1080       H  0.57670500  0.95029980  0.62314677     0.33400
C1081       C  0.69366059  0.79495651  0.14292343    -0.20300
C1082       C  0.72067921  0.79771335  0.14564122     0.35900
C1083       C  0.73621620  0.77644590  0.15686304    -0.26300
C1084       C  0.72555194  0.75235452  0.16556343     0.02300
C1085       C  0.69877802  0.74932468  0.16143069     0.27100
C1086       C  0.68320472  0.77051024  0.15013612    -0.25400
N1087       N  0.73229183  0.82217004  0.13793256    -0.82800
H1088       H  0.75678380  0.77881334  0.15987166     0.12900
C1089       C  0.74255479  0.73065416  0.17987388     0.02300
N1090       N  0.68745082  0.72474758  0.16924608    -0.81400
H1091       H  0.66259908  0.76803616  0.14855124     0.17800
C1092       C  0.73832493  0.71906077  0.22060386    -0.26200
C1093       C  0.75438190  0.69905138  0.23576268     0.35800
C1094       C  0.77533903  0.69052121  0.20977881    -0.20300
C1095       C  0.77938438  0.70205819  0.16892115    -0.25500
C1096       C  0.76320371  0.72178782  0.15361938     0.27200
H1097       H  0.72263484  0.72599398  0.24101602     0.12900
N1098       N  0.75019018  0.68835228  0.27825908    -0.82800
H1099       H  0.79535755  0.69560532  0.14869168     0.17800
N1100       N  0.76765681  0.73284489  0.11144375    -0.81400
H1101       H  0.73497974  0.69781591  0.29420377     0.33400
H1102       H  0.74438800  0.66939459  0.27382263     0.37900
H1103       H  0.78367904  0.72433071  0.09630920     0.33400
H1104       H  0.75183290  0.72855541  0.09192763     0.30100
H1105       H  0.66753819  0.72567689  0.16531256     0.33400
H1106       H  0.69449200  0.71204743  0.14535024     0.30100
H1107       H  0.72914837  0.82679592  0.10524711     0.37900
H1108       H  0.75219548  0.82106025  0.14197728     0.33400
C1109       C  0.63799256  0.94952390  0.16759414    -0.20300
C1110       C  0.61657072  0.96130556  0.18848103     0.35900
C1111       C  0.61508731  0.98820101  0.19132724    -0.26300
C1112       C  0.63428991  0.00362735  0.17319945     0.02300
C1113       C  0.65631061  0.99182646  0.15443568     0.27100
C1114       C  0.65807597  0.96493903  0.15245667    -0.25400
N1115       N  0.59616053  0.94599465  0.20592493    -0.82800
H1116       H  0.59848573  0.99724423  0.20665494     0.12900
C1117       C  0.63033523  0.03193613  0.17116003     0.02300
N1118       N  0.67628346  0.00715565  0.13563609    -0.81400
H1119       H  0.67454225  0.95604871  0.13647050     0.17800
C1120       C  0.64944029  0.04843167  0.18680323    -0.26200
C1121       C  0.64767966  0.07509804  0.18074697     0.35800
C1122       C  0.62613815  0.08551034  0.15917424    -0.20300
C1123       C  0.60627439  0.06919770  0.14611195    -0.25500
C1124       C  0.60829271  0.04252489  0.15120639     0.27200
H1125       H  0.66606023  0.04037834  0.20300454     0.12900
N1126       N  0.66770734  0.09158406  0.19621222    -0.82800
H1127       H  0.58967091  0.07716437  0.12971963     0.17800
N1128       N  0.58849912  0.02611124  0.13462245    -0.81400
H1129       H  0.68225116  0.08088716  0.21107098     0.33400
H1130       H  0.65976038  0.10351389  0.22044951     0.37900
H1131       H  0.57355146  0.03693342  0.12117470     0.33400
H1132       H  0.59646631  0.01517136  0.10912023     0.30100
H1133       H  0.69118391  0.99555987  0.12342804     0.33400
H1134       H  0.66847904  0.01678300  0.10892371     0.30100
H1135       H  0.60378033  0.93514036  0.23137290     0.37900
H1136       H  0.58170898  0.95762724  0.21960041     0.33400
C1137       C  0.66432066  0.89158521  0.01063908    -0.20300
C1138       C  0.65153402  0.91107198  0.98685147     0.35900
C1139       C  0.65154724  0.91008145  0.94102507    -0.26300
C1140       C  0.66427933  0.89033635  0.91815506     0.02300
C1141       C  0.67941934  0.87258824  0.94151380     0.27100
C1142       C  0.67936103  0.87343492  0.98762309    -0.25400
N1143       N  0.63764050  0.93123393  0.00928927    -0.82800
H1144       H  0.64047543  0.92408003  0.92296439     0.12900
C1145       C  0.65869994  0.88666941  0.87080904     0.02300
N1146       N  0.69371340  0.85298891  0.91847864    -0.81400
H1147       H  0.68953303  0.85871751  0.00550624     0.17800
C1148       C  0.67838239  0.88777051  0.83944372    -0.26200
C1149       C  0.67337395  0.88342866  0.79471056     0.35800
C1150       C  0.64800749  0.87776214  0.78109999    -0.20300
C1151       C  0.62839902  0.87715033  0.81285724    -0.25500
C1152       C  0.63344753  0.88147664  0.85718254     0.27200
H1153       H  0.69773314  0.89195068  0.84997767     0.12900
N1154       N  0.69396309  0.88494188  0.76342609    -0.82800
H1155       H  0.60886903  0.87302114  0.80327502     0.17800
N1156       N  0.61303830  0.87997435  0.88877147    -0.81400
H1157       H  0.71101154  0.89034414  0.77864469     0.33400
H1158       H  0.69719493  0.86649001  0.75098895     0.37900
H1159       H  0.59560102  0.87587016  0.87373955     0.33400
H1160       H  0.61739326  0.86437581  0.90864817     0.30100
H1161       H  0.70396411  0.84161385  0.94028716     0.33400
H1162       H  0.68050384  0.84097510  0.90302669     0.30100
H1163       H  0.65098203  0.94200197  0.02682470     0.37900
H1164       H  0.62900922  0.94370192  0.98709780     0.33400
C1165       C  0.65884440  0.84276748  0.50855547    -0.20300
C1166       C  0.67794587  0.85955026  0.49256228     0.35900
C1167       C  0.68125111  0.86239769  0.44704175    -0.26300
C1168       C  0.66593423  0.84890817  0.41726931     0.02300
C1169       C  0.64698720  0.83221254  0.43317001     0.27100
C1170       C  0.64393372  0.82906880  0.47827752    -0.25400
N1171       N  0.69346108  0.87413035  0.52222250    -0.82800
H1172       H  0.69578880  0.87521707  0.43466789     0.12900
C1173       C  0.66923963  0.85228792  0.36934480     0.02300
N1174       N  0.63044210  0.81891676  0.40330057    -0.81400
H1175       H  0.62921102  0.81618818  0.48975933     0.17800
C1176       C  0.67463014  0.83061682  0.34329756    -0.26200
C1177       C  0.67302223  0.83163761  0.29760929     0.35800
C1178       C  0.66582537  0.85481758  0.27750921    -0.20300
C1179       C  0.66272100  0.87707909  0.30318908    -0.25500
C1180       C  0.66421334  0.87602035  0.34908907     0.27200
H1181       H  0.67909732  0.81256024  0.35889018     0.12900
N1182       N  0.67823764  0.80912543  0.27150278    -0.82800
H1183       H  0.65761585  0.89497642  0.28761922     0.17800
N1184       N  0.65959202  0.89865203  0.37515965    -0.81400
H1185       H  0.68330677  0.79366287  0.29126379     0.33400
H1186       H  0.69425188  0.81293920  0.25190876     0.37900
H1187       H  0.65634503  0.91450194  0.35526757     0.33400
H1188       H  0.64266812  0.89585599  0.39303473     0.30100
H1189       H  0.61751606  0.80732416  0.42015786     0.33400
H1190       H  0.61942417  0.83269496  0.38712840     0.30100
H1191       H  0.70543930  0.86119266  0.53847874     0.37900
H1192       H  0.70556478  0.88642391  0.50512376     0.33400
C1193       C  0.30544568  0.22319850  0.92483090    -0.20300
C1194       C  0.30667007  0.24856652  0.90928837     0.35900
C1195       C  0.28712415  0.26625555  0.92069854    -0.26300
C1196       C  0.26640301  0.25917618  0.94745508     0.02300
C1197       C  0.26516843  0.23375302  0.96284510     0.27100
C1198       C  0.28440193  0.21593202  0.95059146    -0.25400
N1199       N  0.32734806  0.25606025  0.88095427    -0.82800
H1200       H  0.28782315  0.28558558  0.90810859     0.12900
C1201       C  0.24578193  0.27834399  0.95801228     0.02300
N1202       N  0.24457074  0.22623759  0.99133580    -0.81400
H1203       H  0.28321006  0.19637248  0.96186774     0.17800
C1204       C  0.22013277  0.27242116  0.94875435    -0.26200
C1205       C  0.20004300  0.28974334  0.95866020     0.35800
C1206       C  0.20576398  0.31406928  0.97657783    -0.20300
C1207       C  0.23146404  0.32017367  0.98525297    -0.25500
C1208       C  0.25145273  0.30235242  0.97712473     0.27200
H1209       H  0.21575755  0.25409563  0.93379531     0.12900
N1210       N  0.17388736  0.28264989  0.95057345    -0.82800
H1211       H  0.23585383  0.33857111  0.99995470     0.17800
N1212       N  0.27738576  0.30827045  0.98917413    -0.81400
H1213       H  0.17298968  0.26408828  0.93764686     0.33400
H1214       H  0.16677263  0.29486426  0.92663862     0.37900
H1215       H  0.27829371  0.32658927  0.00316449     0.33400
H1216       H  0.28288653  0.29537564  0.01341374     0.30100
H1217       H  0.24649367  0.20694203  0.99979923     0.33400
H1218       H  0.24619604  0.23685027  0.02027222     0.30100
H1219       H  0.32586125  0.24535529  0.85206939     0.37900
H1220       H  0.32538148  0.27531285  0.87229103     0.33400
C1221       C  0.56444916  0.18989528  0.71501013    -0.20300
C1222       C  0.54029642  0.19036102  0.69450813     0.35900
C1223       C  0.51774924  0.18979071  0.71981197    -0.26300
C1224       C  0.51864734  0.18897712  0.76562329     0.02300
C1225       C  0.54281619  0.19037628  0.78634736     0.27100
C1226       C  0.56545902  0.19043160  0.76081433    -0.25400
N1227       N  0.53854808  0.18913092  0.64788786    -0.82800
H1228       H  0.49945393  0.18845888  0.70332528     0.12900
C1229       C  0.49431710  0.18471217  0.79080075     0.02300
N1230       N  0.54429008  0.19103430  0.83317287    -0.81400
H1231       H  0.58400606  0.18973178  0.77666286     0.17800
C1232       C  0.49286372  0.16429975  0.82043074    -0.26200
C1233       C  0.46982869  0.15858362  0.84272941     0.35800
C1234       C  0.44746502  0.17343895  0.83493692    -0.20300
C1235       C  0.44901565  0.19376526  0.80501718    -0.25500
C1236       C  0.47211363  0.19972965  0.78343363     0.27200
H1237       H  0.50971549  0.15240354  0.82559718     0.12900
N1238       N  0.46916261  0.13768480  0.87297941    -0.82800
H1239       H  0.43223542  0.20564917  0.79919731     0.17800
N1240       N  0.47318738  0.22124924  0.75446213    -0.81400
H1241       H  0.48730043  0.12908681  0.87561038     0.33400
H1242       H  0.45697905  0.12375680  0.86008734     0.37900
H1243       H  0.45522795  0.23030291  0.75241457     0.33400
H1244       H  0.48572495  0.23460938  0.76804126     0.30100
H1245       H  0.56342505  0.19186020  0.84321802     0.33400
H1246       H  0.53544359  0.20804262  0.84389213     0.30100
H1247       H  0.52843407  0.17260592  0.63947672     0.37900
H1248       H  0.52786636  0.20498650  0.63750905     0.33400
C1249       C  0.42710413  0.21047182  0.98690572    -0.20300
C1250       C  0.43389518  0.20191841  0.02905479     0.35900
C1251       C  0.45810272  0.20809977  0.04592943    -0.26300
C1252       C  0.47542215  0.22293714  0.02192130     0.02300
C1253       C  0.46737911  0.23417649  0.98262201     0.27100
C1254       C  0.44319982  0.22793199  0.96550477    -0.25400
N1255       N  0.41690225  0.18567993  0.05332987    -0.82800
H1256       H  0.46420094  0.19978374  0.07651206     0.12900
C1257       C  0.50281299  0.22300181  0.03507522     0.02300
N1258       N  0.48440374  0.25076024  0.95922445    -0.81400
H1259       H  0.43798625  0.23495898  0.93355275     0.17800
C1260       C  0.52097185  0.21107004  0.00743231    -0.26200
C1261       C  0.54567994  0.20505259  0.02211729     0.35800
C1262       C  0.55288473  0.21184643  0.06526858    -0.20300
C1263       C  0.53535336  0.22601428  0.09130470    -0.25500
C1264       C  0.51028902  0.23128977  0.07689346     0.27200
H1265       H  0.51529293  0.20461553  0.97520559     0.12900
N1266       N  0.56254448  0.19135851  0.99281601    -0.82800
H1267       H  0.54048104  0.23131429  0.12437244     0.17800
N1268       N  0.49200253  0.24396087  0.10522107    -0.81400
H1269       H  0.58013534  0.20096283  0.99132693     0.33400
H1270       H  0.56549987  0.17283046  0.00419770     0.37900
H1271       H  0.50038063  0.24849224  0.13521133     0.33400
H1272       H  0.48693456  0.26133517  0.09071253     0.30100
H1273       H  0.47570826  0.25732310  0.93068866     0.33400
H1274       H  0.48748679  0.26689661  0.97889885     0.30100
H1275       H  0.40023260  0.19630153  0.06030348     0.37900
H1276       H  0.42495707  0.18076546  0.08333910     0.33400
C1277       C  0.22798596  0.33105452  0.49452976    -0.20300
C1278       C  0.23099544  0.30674714  0.51357111     0.35900
C1279       C  0.24944404  0.28953502  0.49634674    -0.26300
C1280       C  0.26436647  0.29600438  0.45982197     0.02300
C1281       C  0.26173275  0.32048974  0.44126151     0.27100
C1282       C  0.24391959  0.33801130  0.45948587    -0.25400
N1283       N  0.21464946  0.29938106  0.54921110    -0.82800
H1284       H  0.25146699  0.27058070  0.51020375     0.12900
C1285       C  0.28084914  0.27597628  0.43931135     0.02300
N1286       N  0.27567286  0.32673630  0.40215915    -0.81400
H1287       H  0.24096795  0.35641073  0.44402152     0.17800
C1288       C  0.26943215  0.25767894  0.41201278    -0.26200
C1289       C  0.28344878  0.23624824  0.39660929     0.35800
C1290       C  0.30951852  0.23341179  0.40816324    -0.20300
C1291       C  0.32126095  0.25257666  0.43338366    -0.25500
C1292       C  0.30704342  0.27360164  0.44983201     0.27200
H1293       H  0.24922625  0.25961100  0.40426711     0.12900
N1294       N  0.27112830  0.21690338  0.37065555    -0.82800
H1295       H  0.34108177  0.25009390  0.44321505     0.17800
N1296       N  0.31857681  0.29144969  0.47969111    -0.81400
H1297       H  0.25186268  0.22174635  0.36544509     0.33400
H1298       H  0.28010030  0.21655749  0.34003112     0.37900
H1299       H  0.33771670  0.28631591  0.48555678     0.33400
H1300       H  0.31899434  0.30934431  0.46480631     0.30100
H1301       H  0.27065641  0.34511013  0.39158700     0.33400
H1302       H  0.29517958  0.32728734  0.40968650     0.30100
H1303       H  0.21851916  0.31158327  0.57555260     0.37900
H1304       H  0.21916726  0.28078813  0.55930220     0.33400
C1305       C  0.54387165  0.17407409  0.21400843    -0.20300
C1306       C  0.52647563  0.15348851  0.21461667     0.35900
C1307       C  0.50246749  0.15676759  0.23535508    -0.26300
C1308       C  0.49543321  0.18028463  0.25490277     0.02300
C1309       C  0.51290091  0.20075336  0.25451641     0.27100
C1310       C  0.53704786  0.19732051  0.23463293    -0.25400
N1311       N  0.53324222  0.12941528  0.19424707    -0.82800
H1312       H  0.48916634  0.14092543  0.23637478     0.12900
C1313       C  0.47001774  0.18302199  0.27678289     0.02300
N1314       N  0.50576412  0.22514438  0.27337346    -0.81400
H1315       H  0.55016623  0.21331353  0.23348365     0.17800
C1316       C  0.46903253  0.18985347  0.32113331    -0.26200
C1317       C  0.44567980  0.19055121  0.34406747     0.35800
C1318       C  0.42269757  0.18435038  0.32237190    -0.20300
C1319       C  0.42353973  0.17869679  0.27743641    -0.25500
C1320       C  0.44697406  0.17805209  0.25436090     0.27200
H1321       H  0.48667140  0.19354102  0.33861500     0.12900
N1322       N  0.44572292  0.19570178  0.39008582    -0.82800
H1323       H  0.40597843  0.17366462  0.26073014     0.17800
N1324       N  0.44755798  0.17176317  0.20857960    -0.81400
H1325       H  0.45376923  0.21377961  0.39514955     0.33400
H1326       H  0.45753509  0.18210567  0.40502770     0.37900
H1327       H  0.42902789  0.16840773  0.19710645     0.33400
H1328       H  0.45436957  0.18779937  0.19195761     0.30100
H1329       H  0.52076196  0.23820393  0.27035685     0.33400
H1330       H  0.49043290  0.23246444  0.25526858     0.30100
H1331       H  0.54893360  0.12181474  0.21106998     0.37900
H1332       H  0.51828938  0.11630772  0.19752987     0.33400
C1333       C  0.32598023  0.16497303  0.53885706    -0.20300
C1334       C  0.32192806  0.18768051  0.56326840     0.35900
C1335       C  0.32205279  0.18668696  0.60898344    -0.26300
C1336       C  0.32689751  0.16360803  0.63076468     0.02300
C1337       C  0.32994212  0.14067802  0.60639994     0.27100
C1338       C  0.32899204  0.14154513  0.56051899    -0.25400
N1339       N  0.31842337  0.21175625  0.54144885    -0.82800
H1340       H  0.31940529  0.20419146  0.62783654     0.12900
C1341       C  0.33101912  0.16442197  0.67865641     0.02300
N1342       N  0.33518360  0.11691016  0.62818407    -0.81400
H1343       H  0.33236577  0.12419265  0.54158030     0.17800
C1344       C  0.31539738  0.15007120  0.70666546    -0.26200
C1345       C  0.31881480  0.15102232  0.75224573     0.35800
C1346       C  0.33843251  0.16647006  0.76985882    -0.20300
C1347       C  0.35381186  0.18093305  0.74167483    -0.25500
C1348       C  0.35049000  0.17990948  0.69637492     0.27200
H1349       H  0.30030140  0.13840857  0.69291563     0.12900
N1350       N  0.30219894  0.13678628  0.78057512    -0.82800
H1351       H  0.36900776  0.19265248  0.75498482     0.17800
N1352       N  0.36706983  0.19429290  0.66814249    -0.81400
H1353       H  0.28885854  0.12640344  0.76238464     0.33400
H1354       H  0.29166801  0.15003377  0.79941434     0.37900
H1355       H  0.38024790  0.20487825  0.68631984     0.33400
H1356       H  0.37776409  0.18115784  0.64933641     0.30100
H1357       H  0.33701559  0.10188485  0.60549276     0.33400
H1358       H  0.35298621  0.11857751  0.64344893     0.30100
H1359       H  0.30141870  0.21067479  0.52355222     0.37900
H1360       H  0.31592617  0.22667434  0.56409623     0.33400
C1361       C  0.32318912  0.13980868  0.26908961    -0.20300
C1362       C  0.32350562  0.11626705  0.24631569     0.35900
C1363       C  0.32402301  0.11596448  0.20057829    -0.26300
C1364       C  0.32518958  0.13886950  0.17697618     0.02300
C1365       C  0.32330620  0.16256287  0.19970625     0.27100
C1366       C  0.32182839  0.16273860  0.24564315    -0.25400
N1367       N  0.32413019  0.09260719  0.26970970    -0.82800
H1368       H  0.32482619  0.09771239  0.18345030     0.12900
C1369       C  0.33057942  0.13775029  0.12916499     0.02300
N1370       N  0.32439021  0.18631680  0.17631830    -0.81400
H1371       H  0.32183432  0.18084752  0.26324355     0.17800
C1372       C  0.31442411  0.15078509  0.10026798    -0.26200
C1373       C  0.32026018  0.15211915  0.05546172     0.35800
C1374       C  0.34233350  0.13915954  0.03865872    -0.20300
C1375       C  0.35797398  0.12537033  0.06758749    -0.25500
C1376       C  0.35254563  0.12478330  0.11257477     0.27200
H1377       H  0.29754589  0.16065207  0.11302468     0.12900
N1378       N  0.30429997  0.16738987  0.02753159    -0.82800
H1379       H  0.37494625  0.11548600  0.05527046     0.17800
N1380       N  0.36966301  0.11161521  0.14165295    -0.81400
H1381       H  0.28847496  0.17485859  0.04473316     0.33400
H1382       H  0.31514831  0.18314930  0.01784755     0.37900
H1383       H  0.38479879  0.10292763  0.12430203     0.33400
H1384       H  0.37785306  0.12534807  0.16220581     0.30100
H1385       H  0.32276284  0.20192244  0.19782764     0.33400
H1386       H  0.34256117  0.18743670  0.16177452     0.30100
H1387       H  0.30825633  0.08181577  0.26026831     0.37900
H1388       H  0.34074017  0.08251312  0.26034117     0.33400
C1389       C  0.55484017  0.14441446  0.56704616    -0.20300
C1390       C  0.53824959  0.12398817  0.57729948     0.35900
C1391       C  0.51412524  0.12239429  0.55722747    -0.26300
C1392       C  0.50621719  0.14084288  0.52709960     0.02300
C1393       C  0.52283485  0.16094225  0.51593441     0.27100
C1394       C  0.54705935  0.16239038  0.53570537    -0.25400
N1395       N  0.54571179  0.10487289  0.60814235    -0.82800
H1396       H  0.50132310  0.10692489  0.56573793     0.12900
C1397       C  0.48004308  0.13970122  0.50878577     0.02300
N1398       N  0.51458353  0.18038972  0.48596823    -0.81400
H1399       H  0.55946378  0.17828783  0.52787279     0.17800
C1400       C  0.45983775  0.15191210  0.53129351    -0.26200
C1401       C  0.43505358  0.15319114  0.51342001     0.35800
C1402       C  0.43060933  0.14245600  0.47149475    -0.20300
C1403       C  0.45073410  0.12904169  0.45021982    -0.25500
C1404       C  0.47538559  0.12752485  0.46851248     0.27200
H1405       H  0.46358272  0.16085289  0.56264609     0.12900
N1406       N  0.41463314  0.16573504  0.53742721    -0.82800
H1407       H  0.44755722  0.12050798  0.41837944     0.17800
N1408       N  0.49572950  0.11377286  0.44632530    -0.81400
H1409       H  0.42127434  0.17289528  0.56719548     0.33400
H1410       H  0.40095996  0.15183870  0.54494259     0.37900
H1411       H  0.48902407  0.10553935  0.41738138     0.33400
H1412       H  0.50973616  0.12696394  0.43731082     0.30100
H1413       H  0.52882561  0.19421499  0.48210174     0.33400
H1414       H  0.51220628  0.17175218  0.45540637     0.30100
H1415       H  0.53210014  0.10486805  0.63339038     0.37900
H1416       H  0.54523794  0.08699856  0.59250656     0.33400
C1417       C  0.32199878  0.78510864  0.84622170    -0.20300
C1418       C  0.30139287  0.79094250  0.81821975     0.35900
C1419       C  0.28561778  0.77127939  0.80270230    -0.26300
C1420       C  0.28973547  0.74569229  0.81481580     0.02300
C1421       C  0.31062152  0.73961261  0.84208760     0.27100
C1422       C  0.32675906  0.75935291  0.85704667    -0.25400
N1423       N  0.29667440  0.81674736  0.80463399    -0.82800
H1424       H  0.26972772  0.77608404  0.78149008     0.12900
C1425       C  0.27056732  0.72612402  0.80168209     0.02300
N1426       N  0.31492908  0.71358509  0.85541522    -0.81400
H1427       H  0.34266443  0.75470471  0.87829323     0.17800
C1428       C  0.27785405  0.70445274  0.77670779    -0.26200
C1429       C  0.25959383  0.68596103  0.76385653     0.35800
C1430       C  0.23343245  0.68982850  0.77505226    -0.20300
C1431       C  0.22649716  0.71165878  0.79995617    -0.25500
C1432       C  0.24469006  0.72936460  0.81413947     0.27200
H1433       H  0.29782830  0.70196488  0.76736138     0.12900
N1434       N  0.26751025  0.66377298  0.73896910    -0.82800
H1435       H  0.20668536  0.71462851  0.80992051     0.17800
N1436       N  0.23703292  0.75049665  0.84191858    -0.81400
H1437       H  0.28710153  0.66469015  0.73143895     0.33400
H1438       H  0.26534440  0.64780713  0.75898344     0.37900
H1439       H  0.21727599  0.75018685  0.84810252     0.33400
H1440       H  0.24605876  0.74802854  0.87202934     0.30100
H1441       H  0.33107742  0.71233687  0.87541886     0.33400
H1442       H  0.29919605  0.70816024  0.87449412     0.30100
H1443       H  0.27802235  0.82191287  0.81423483     0.37900
H1444       H  0.29750556  0.81706667  0.77053710     0.33400
C1445       C  0.45491971  0.84465887  0.94577798    -0.20300
C1446       C  0.47735992  0.83880418  0.92159974     0.35900
C1447       C  0.50007423  0.83221645  0.94310149    -0.26300
C1448       C  0.50171993  0.83281112  0.98884932     0.02300
C1449       C  0.47954582  0.84007366  0.01318889     0.27100
C1450       C  0.45617734  0.84498125  0.99155593    -0.25400
N1451       N  0.47711058  0.83894513  0.87489008    -0.82800
H1452       H  0.51671436  0.82685249  0.92354298     0.12900
C1453       C  0.52749547  0.82857496  0.00932898     0.02300
N1454       N  0.48082194  0.84355261  0.05953451    -0.81400
H1455       H  0.43912761  0.84967076  0.01056733     0.17800
C1456       C  0.54889483  0.84036440  0.99027897    -0.26200
C1457       C  0.57306138  0.83927409  0.00973705     0.35800
C1458       C  0.57609866  0.82763027  0.05072407    -0.20300
C1459       C  0.55556619  0.81339043  0.06767232    -0.25500
C1460       C  0.53140978  0.81320977  0.04669224     0.27200
H1461       H  0.54682277  0.85139903  0.96068680     0.12900
N1462       N  0.59449596  0.85064033  0.98809323    -0.82800
H1463       H  0.55775299  0.80385950  0.09872141     0.17800
N1464       N  0.51082456  0.79808307  0.06384800    -0.81400
H1465       H  0.59009780  0.86989175  0.98217616     0.33400
H1466       H  0.59676172  0.84113216  0.95815922     0.37900
H1467       H  0.50622665  0.78432353  0.04012207     0.33400
H1468       H  0.51680645  0.78809664  0.09138884     0.30100
H1469       H  0.47564758  0.86250616  0.06688323     0.33400
H1470       H  0.46722590  0.83159351  0.07397417     0.30100
H1471       H  0.48303105  0.82084711  0.86385950     0.37900
H1472       H  0.49058179  0.85226402  0.86427142     0.33400
C1473       C  0.37548875  0.93723695  0.87735967    -0.20300
C1474       C  0.35354134  0.95084117  0.89260945     0.35900
C1475       C  0.35366451  0.97786880  0.89375547    -0.26300
C1476       C  0.37498856  0.99184759  0.87918054     0.02300
C1477       C  0.39686694  0.97822542  0.86363260     0.27100
C1478       C  0.39700734  0.95119810  0.86355999    -0.25400
N1479       N  0.33123987  0.93722814  0.90721904    -0.82800
H1480       H  0.33704058  0.98812009  0.90656933     0.12900
C1481       C  0.37437509  0.02061934  0.88159484     0.02300
N1482       N  0.41870052  0.99186232  0.84712115    -0.81400
H1483       H  0.41377377  0.94097203  0.85120916     0.17800
C1484       C  0.39456924  0.03361657  0.90207079    -0.26200
C1485       C  0.39469907  0.06054782  0.90588473     0.35800
C1486       C  0.37363692  0.07507868  0.89008877    -0.20300
C1487       C  0.35329684  0.06207175  0.86991446    -0.25500
C1488       C  0.35363357  0.03514693  0.86482463     0.27200
H1489       H  0.41028008  0.02261952  0.91574191     0.12900
N1490       N  0.41569148  0.07297021  0.92750996    -0.82800
H1491       H  0.33710378  0.07300869  0.85773934     0.17800
N1492       N  0.33302613  0.02252847  0.84250434    -0.81400
H1493       H  0.42843944  0.05943277  0.94033509     0.33400
H1494       H  0.42606486  0.08286453  0.90378552     0.37900
H1495       H  0.31921078  0.03586003  0.83237601     0.33400
H1496       H  0.34069582  0.01404446  0.81423340     0.30100
H1497       H  0.43317807  0.97910822  0.83703369     0.33400
H1498       H  0.41279407  0.00176872  0.81930999     0.30100
H1499       H  0.33640355  0.92699003  0.93503567     0.37900
H1500       H  0.31663620  0.95002840  0.91676950     0.33400
C1501       C  0.43970106  0.80012737  0.80147038    -0.20300
C1502       C  0.45679745  0.78291602  0.82208818     0.35900
C1503       C  0.48076769  0.77726608  0.80255641    -0.26300
C1504       C  0.48784432  0.78846548  0.76279373     0.02300
C1505       C  0.46956085  0.80304444  0.73990821     0.27100
C1506       C  0.44556639  0.80829279  0.75894785    -0.25400
N1507       N  0.45094446  0.77283443  0.86429908    -0.82800
H1508       H  0.49465446  0.76577073  0.82011949     0.12900
C1509       C  0.51527666  0.78933282  0.74940352     0.02300
N1510       N  0.47613836  0.81455294  0.69907610    -0.81400
H1511       H  0.43247705  0.82093371  0.74190698     0.17800
C1512       C  0.52306764  0.77951555  0.70855383    -0.26200
C1513       C  0.54707788  0.78602486  0.69044337     0.35800
C1514       C  0.56334544  0.80268627  0.71373787    -0.20300
C1515       C  0.55636788  0.81074807  0.75589540    -0.25500
C1516       C  0.53256183  0.80420577  0.77387463     0.27200
H1517       H  0.50970068  0.76822931  0.68962245     0.12900
N1518       N  0.55392381  0.77784359  0.64696556    -0.82800
H1519       H  0.56862440  0.82385798  0.77362531     0.17800
N1520       N  0.52513383  0.81452083  0.81555610    -0.81400
H1521       H  0.53940982  0.76649209  0.63361371     0.33400
H1522       H  0.57019240  0.76611060  0.64926352     0.37900
H1523       H  0.53852961  0.80835802  0.83856836     0.33400
H1524       H  0.52600543  0.83450730  0.81395320     0.30100
H1525       H  0.46284465  0.80851138  0.67580661     0.33400
H1526       H  0.47428096  0.83444196  0.70261042     0.30100
H1527       H  0.46527471  0.77859978  0.88594844     0.37900
H1528       H  0.45158541  0.75284002  0.86203203     0.33400
C1529       C  0.31396630  0.78253642  0.34266474    -0.20300
C1530       C  0.29943096  0.76954594  0.37440428     0.35900
C1531       C  0.28166461  0.75091964  0.36118356    -0.26300
C1532       C  0.27792984  0.74538418  0.31683470     0.02300
C1533       C  0.29301755  0.75782066  0.28513065     0.27100
C1534       C  0.31107579  0.77624068  0.29840621    -0.25400
N1535       N  0.30225362  0.77597671  0.41984218    -0.82800
H1536       H  0.26996325  0.74137773  0.38538043     0.12900
C1537       C  0.25664929  0.72817240  0.30404592     0.02300
N1538       N  0.28931843  0.75222435  0.23961078    -0.81400
H1539       H  0.32203063  0.78656208  0.27414538     0.17800
C1540       C  0.23398895  0.73903119  0.28786995    -0.26200
C1541       C  0.21268286  0.72380387  0.27744490     0.35800
C1542       C  0.21433543  0.69676204  0.28211179    -0.20300
C1543       C  0.23727897  0.68602133  0.29833036    -0.25500
C1544       C  0.25833490  0.70146369  0.30957361     0.27200
H1545       H  0.23275464  0.75966063  0.28433131     0.12900
N1546       N  0.18946141  0.73589338  0.26245627    -0.82800
H1547       H  0.23885558  0.66546246  0.30236997     0.17800
N1548       N  0.28141619  0.69018300  0.32668130    -0.81400
H1549       H  0.19201183  0.75562951  0.25879048     0.33400
H1550       H  0.17560484  0.73382787  0.28697827     0.37900
H1551       H  0.27956065  0.67029935  0.32907502     0.33400
H1552       H  0.29618795  0.69343222  0.30419377     0.30100
H1553       H  0.30167691  0.76318899  0.22044700     0.33400
H1554       H  0.29451203  0.73303908  0.23432532     0.30100
H1555       H  0.32101815  0.77117488  0.42880101     0.37900
H1556       H  0.29003657  0.76486310  0.43903123     0.33400
C1557       C  0.43593542  0.86381771  0.44380016    -0.20300
C1558       C  0.43572486  0.86124139  0.48960678     0.35900
C1559       C  0.45890974  0.86219641  0.51285920    -0.26300
C1560       C  0.48248703  0.86561174  0.49120642     0.02300
C1561       C  0.48265160  0.86910141  0.44554680     0.27100
C1562       C  0.45939921  0.86820369  0.42234951    -0.25400
N1563       N  0.41200043  0.85777690  0.51266605    -0.82800
H1564       H  0.45855452  0.85959828  0.54791654     0.12900
C1565       C  0.50690530  0.86415846  0.51635159     0.02300
N1566       N  0.50647855  0.87328244  0.42286274    -0.81400
H1567       H  0.45971164  0.87009372  0.38714903     0.17800
C1568       C  0.52530526  0.84537417  0.50506412    -0.26200
C1569       C  0.54810556  0.84244223  0.52903310     0.35800
C1570       C  0.55245827  0.85835531  0.56582298    -0.20300
C1571       C  0.53437428  0.87770630  0.57622353    -0.25500
C1572       C  0.51169999  0.88078254  0.55187285     0.27200
H1573       H  0.52167945  0.83269494  0.47763672     0.12900
N1574       N  0.56683860  0.82341453  0.51599578    -0.82800
H1575       H  0.53761740  0.89012158  0.60413410     0.17800
N1576       N  0.49345596  0.90062445  0.56319944    -0.81400
H1577       H  0.56059538  0.81320902  0.48854408     0.33400
H1578       H  0.58340737  0.83307821  0.50645406     0.37900
H1579       H  0.49974913  0.91112755  0.59018986     0.33400
H1580       H  0.49265342  0.91337907  0.53703367     0.30100
H1581       H  0.50331776  0.87552234  0.38959482     0.33400
H1582       H  0.51394830  0.89068499  0.43429295     0.30100
H1583       H  0.41328884  0.84065726  0.53005574     0.37900
H1584       H  0.40985302  0.87279539  0.53523127     0.33400
C1585       C  0.34212957  0.93866526  0.40009565    -0.20300
C1586       C  0.31755851  0.94809480  0.41255772     0.35900
C1587       C  0.31409615  0.97452789  0.42056503    -0.26300
C1588       C  0.33463573  0.99155476  0.41633557     0.02300
C1589       C  0.35916685  0.98210703  0.40447895     0.27100
C1590       C  0.36271178  0.95581403  0.39716539    -0.25400
N1591       N  0.29623861  0.93096221  0.41678788    -0.82800
H1592       H  0.29530509  0.98195785  0.42971990     0.12900
C1593       C  0.33045796  0.01950544  0.42178682     0.02300
N1594       N  0.38023808  0.99942505  0.39852378    -0.81400
H1595       H  0.38156786  0.94887796  0.38732800     0.17800
C1596       C  0.34539987  0.03284647  0.45225475    -0.26200
C1597       C  0.34708284  0.05963309  0.45107163     0.35800
C1598       C  0.33304910  0.07321776  0.41948610    -0.20300
C1599       C  0.31598414  0.06014525  0.39215572    -0.25500
C1600       C  0.31482891  0.03325980  0.39249523     0.27200
H1601       H  0.35704794  0.02216824  0.47512536     0.12900
N1602       N  0.36369605  0.07305319  0.48061180    -0.82800
H1603       H  0.30516024  0.07074595  0.36805091     0.17800
N1604       N  0.29912150  0.01986829  0.36149777    -0.81400
H1605       H  0.37282305  0.06021620  0.50159128     0.33400
H1606       H  0.35215624  0.08503823  0.50017050     0.37900
H1607       H  0.28879421  0.03285113  0.34240650     0.33400
H1608       H  0.31136679  0.00976158  0.34020913     0.30100
H1609       H  0.39703053  0.98941055  0.38995515     0.33400
H1610       H  0.37580198  0.01122920  0.37214128     0.30100
H1611       H  0.30025425  0.91860980  0.44262780     0.37900
H1612       H  0.27951479  0.94107046  0.42543168     0.33400
C1613       C  0.33652746  0.84339183  0.50561126    -0.20300
C1614       C  0.34981823  0.82571084  0.53230937     0.35900
C1615       C  0.35204530  0.83050161  0.57726823    -0.26300
C1616       C  0.34079966  0.85229949  0.59661350     0.02300
C1617       C  0.32631192  0.86917410  0.57081086     0.27100
C1618       C  0.32430186  0.86466767  0.52567620    -0.25400
N1619       N  0.36157464  0.80309573  0.51403338    -0.82800
H1620       H  0.36294477  0.81725846  0.59716385     0.12900
C1621       C  0.34534599  0.85757329  0.64353433     0.02300
N1622       N  0.31437905  0.89138792  0.59013083    -0.81400
H1623       H  0.31390791  0.87847271  0.50613401     0.17800
C1624       C  0.37002753  0.86433406  0.65714549    -0.26200
C1625       C  0.37555396  0.86800932  0.70156783     0.35800
C1626       C  0.35597008  0.86494233  0.73339502    -0.20300
C1627       C  0.33109515  0.85871542  0.71926819    -0.25500
C1628       C  0.32573492  0.85485645  0.67480704     0.27200
H1629       H  0.38523504  0.86637597  0.63312109     0.12900
N1630       N  0.40127370  0.87412699  0.71400974    -0.82800
H1631       H  0.31575829  0.85637136  0.74286485     0.17800
N1632       N  0.30054641  0.84737469  0.66157771    -0.81400
H1633       H  0.40637661  0.89117146  0.69864124     0.33400
H1634       H  0.41350461  0.85956803  0.70236257     0.37900
H1635       H  0.29606755  0.83029748  0.67736435     0.33400
H1636       H  0.28752664  0.86149157  0.67232660     0.30100
H1637       H  0.32155519  0.90758099  0.57449990     0.33400
H1638       H  0.29466437  0.89050787  0.58404973     0.30100
H1639       H  0.38120045  0.80351721  0.52087538     0.37900
H1640       H  0.35373163  0.78717491  0.52959989     0.33400
C1641       C  0.33308630  0.87484022  0.23673606    -0.20300
C1642       C  0.34921830  0.88880967  0.20805412     0.35900
C1643       C  0.34752020  0.88484673  0.16266543    -0.26300
C1644       C  0.32982416  0.86773851  0.14461185     0.02300
C1645       C  0.31272068  0.85491581  0.17273546     0.27100
C1646       C  0.31461003  0.85847022  0.21835744    -0.25400
N1647       N  0.36790681  0.90640530  0.22484638    -0.82800
H1648       H  0.36068749  0.89467587  0.14113665     0.12900
C1649       C  0.33090168  0.86234670  0.09655758     0.02300
N1650       N  0.29373363  0.83806480  0.15484774    -0.81400
H1651       H  0.30203668  0.84777395  0.23966517     0.17800
C1652       C  0.33589190  0.83725460  0.08171912    -0.26200
C1653       C  0.34044886  0.83179125  0.03716317     0.35800
C1654       C  0.34041210  0.85199572  0.00646559    -0.20300
C1655       C  0.33408292  0.87691324  0.02120444    -0.25500
C1656       C  0.32931387  0.88226477  0.06573704     0.27200
H1657       H  0.33707058  0.82192302  0.10529009     0.12900
N1658       N  0.34547467  0.80582855  0.02326418    -0.82800
H1659       H  0.33366458  0.89252124  0.99811671     0.17800
N1660       N  0.32331158  0.90796134  0.07998055    -0.81400
H1661       H  0.34525581  0.79340854  0.04993636     0.33400
H1662       H  0.33039356  0.80029504  0.00305256     0.37900
H1663       H  0.32302718  0.92046124  0.05340734     0.33400
H1664       H  0.30472589  0.90791507  0.09295247     0.30100
H1665       H  0.28270337  0.83000255  0.17979887     0.33400
H1666       H  0.28120148  0.84918803  0.13621711     0.30100
H1667       H  0.35785503  0.92173126  0.23931126     0.37900
H1668       H  0.37887271  0.91416579  0.19957279     0.33400
C1669       C  0.55476142  0.85730765  0.19857167    -0.20300
C1670       C  0.53290871  0.85833455  0.17158785     0.35900
C1671       C  0.50906372  0.85106604  0.18817192    -0.26300
C1672       C  0.50588432  0.84476259  0.23228783     0.02300
C1673       C  0.52748825  0.84488411  0.26000591     0.27100
C1674       C  0.55182222  0.85046744  0.24252436    -0.25400
N1675       N  0.53473484  0.86640913  0.12710202    -0.82800
H1676       H  0.49277100  0.85073236  0.16633213     0.12900
C1677       C  0.47952266  0.84004460  0.24913359     0.02300
N1678       N  0.52461599  0.83976099  0.30578769    -0.81400
H1679       H  0.56852865  0.84977480  0.26341572     0.17800
C1680       C  0.47432526  0.81886720  0.27592478    -0.26200
C1681       C  0.44993092  0.81575636  0.29524142     0.35800
C1682       C  0.43004021  0.83332656  0.28578669    -0.20300
C1683       C  0.43494208  0.85307664  0.25587513    -0.25500
C1684       C  0.45944567  0.85723536  0.23926975     0.27200
H1685       H  0.48946144  0.80518470  0.28309690     0.12900
N1686       N  0.44577616  0.79529442  0.32523358    -0.82800
H1687       H  0.42020765  0.86705186  0.24791880     0.17800
N1688       N  0.46413537  0.88000448  0.21466093    -0.81400
H1689       H  0.45883174  0.79729028  0.35080809     0.33400
H1690       H  0.44988198  0.77800949  0.30902764     0.37900
H1691       H  0.45203864  0.87988705  0.18750984     0.33400
H1692       H  0.45919096  0.89586084  0.23412065     0.30100
H1693       H  0.54236764  0.84065182  0.32151348     0.33400
H1694       H  0.51319407  0.85440515  0.31924438     0.30100
H1695       H  0.52730658  0.85193172  0.10735130     0.37900
H1696       H  0.52296130  0.88258650  0.12346310     0.33400
loop_ 
_geom_bond_atom_site_label_1 
_geom_bond_atom_site_label_2 
_geom_bond_distance 
_geom_bond_site_symmetry_2 
_ccdc_geom_bond_type 
O1           C16   1.271       .  A
O1           Al9   1.933       .  S
C2           O12   1.266       .  A
C2            O3   1.268       .  A
C2         C1641   1.501       .  S
O3           Al5   1.923       .  S
O4            C6   1.263       .  A
O4           Al5   1.918       .  S
Al5          O13   1.937       .  S
Al5          O15   1.899       .  S
Al5          O14   1.772       .  S
C6           O19   1.265       .  A
C6         C1529   1.474       .  S
O7           C17   1.269       .  A
O7           Al9   1.962       .  S
O8           C21   1.267       .  A
O8          Al18   1.942       .  S
Al9          O22   1.899       .  S
Al9          O19   1.918       .  S
Al9          O14   1.776       .  S
O10          C17   1.252       .  A
O10         Al18   1.856       .  S
O11          C20   1.260       .  A
O11         Al18   1.880       .  S
O12         Al18   1.926       .  S
O13          C20   1.266       .  A
O14         Al18   1.756       .  S
O15          C16   1.267       .  A
C16        C1613   1.491       .  S
C17        C1682   1.484       .  S
C20        C1585   1.483       .  S
C21          O22   1.261       .  A
C21        C1557   1.485       .  S
O23          C38   1.268       .  A
O23         Al31   1.932       .  S
C24          O34   1.263       .  A
C24          O25   1.262       .  A
C24        C1626   1.492       .  S
O25         Al27   1.903       .  S
O26          C28   1.265       .  A
O26         Al27   1.926       .  S
Al27         O35   1.934       .  S
Al27         O37   1.908       .  S
Al27         O36   1.779       .  S
C28          O41   1.259       .  A
C28        C1417   1.485       .  S
O29          C39   1.266       .  A
O29         Al31   1.942       .  S
O30          C43   1.266       .  A
O30         Al40   1.923       .  S
Al31         O44   1.902       .  S
Al31         O41   1.894       .  S
Al31         O36   1.787       .  S
O32          C39   1.258       .  A
O32         Al40   1.881       .  S
O33          C42   1.263       .  A
O33         Al40   1.900       .  S
O34         Al40   1.922       .  S
O35          C42   1.267       .  A
O36         Al40   1.776       .  S
O37          C38   1.265       .  A
C38        C1654   1.499   1_556  S
C39        C1501   1.488       .  S
C42        C1473   1.494       .  S
C43          O44   1.261       .  A
C43        C1445   1.484       .  S
O45          C60   1.257       .  A
O45         Al53   1.886       .  S
C46          O56   1.267       .  A
C46          O47   1.267       .  A
C46        C1361   1.475       .  S
O47         Al49   1.924       .  S
O48          C50   1.258       .  A
O48         Al49   1.880       .  S
Al49         O57   1.886       .  S
Al49         O59   1.923       .  S
Al49         O58   1.768       .  S
C50          O63   1.268       .  A
C50        C1318   1.478       .  S
O51          C61   1.261       .  A
O51         Al53   1.900       .  S
O52          C65   1.266       .  A
O52         Al62   1.906       .  S
Al53         O66   1.921       .  S
Al53         O63   1.932       .  S
Al53         O58   1.774       .  S
O54          C61   1.262       .  A
O54         Al62   1.914       .  S
O55          C64   1.263       .  A
O55         Al62   1.930       .  S
O56         Al62   1.913       .  S
O57          C64   1.258       .  A
O58         Al62   1.779       .  S
O59          C60   1.263       .  A
C60        C1402   1.489       .  S
C61        C1290   1.478       .  S
C64        C1598   1.469       .  S
C65          O66   1.268       .  A
C65        C1333   1.473       .  S
O67          C82   1.267       .  A
O67         Al75   1.919       .  S
C68          O78   1.269       .  A
C68          O69   1.260       .  A
C68        C1374   1.492   1_556  S
O69         Al71   1.884       .  S
O70          C72   1.264       .  A
O70         Al71   1.929       .  S
Al71         O79   1.937       .  S
Al71         O81   1.896       .  S
Al71         O80   1.787       .  S
C72          O85   1.261       .  A
C72        C1193   1.483       .  S
O73          C83   1.264       .  A
O73         Al75   1.929       .  S
O74          C87   1.269       .  A
O74         Al84   1.945       .  S
Al75         O88   1.889       .  S
Al75         O85   1.898       .  S
Al75         O80   1.783       .  S
O76          C83   1.255       .  A
O76         Al84   1.878       .  S
O77          C86   1.259       .  A
O77         Al84   1.897       .  S
O78         Al84   1.935       .  S
O79          C86   1.265       .  A
O80         Al84   1.779       .  S
O81          C82   1.264       .  A
C82        C1346   1.480       .  S
C83        C1249   1.485       .  S
C86        C1486   1.495       .  S
C87          O88   1.261       .  A
C87        C1234   1.498       .  S
O89         C104   1.258       .  A
O89         Al97   1.894       .  S
C90         O100   1.270       .  A
C90          O91   1.262       .  A
C90        C1137   1.492       .  S
O91         Al93   1.910       .  S
O92          C94   1.259       .  A
O92         Al93   1.869       .  S
Al93        O101   1.885       .  S
Al93        O103   1.907       .  S
Al93        O102   1.768       .  S
C94         O107   1.273       .  A
C94        C1458   1.488       .  S
O95         C105   1.264       .  A
O95         Al97   1.906       .  S
O96         C109   1.266       .  A
O96        Al106   1.905       .  S
Al97        O110   1.930       .  S
Al97        O107   1.966       .  S
Al97        O102   1.776       .  S
O98         C105   1.266       .  A
O98        Al106   1.938       .  S
O99         C108   1.271       .  A
O99        Al106   1.950       .  S
O100       Al106   1.937       .  S
O101        C108   1.260       .  A
O102       Al106   1.776       .  S
O103        C104   1.259       .  A
C104       C1669   1.477       .  S
C105       C1081   1.502       .  S
C108       C1109   1.485       .  S
C109        O110   1.270       .  A
C109       C1178   1.480       .  S
O111        C126   1.257       .  A
O111       Al119   1.874       .  S
C112        O122   1.264       .  A
C112        O113   1.269       .  A
C112       C1150   1.497       .  S
O113       Al115   1.941       .  S
O114        C116   1.256       .  A
O114       Al115   1.881       .  S
Al115       O123   1.889       .  S
Al115       O125   1.927       .  S
Al115       O124   1.792       .  S
C116        O129   1.266       .  A
C116       C1025   1.498       .  S
O117        C127   1.259       .  A
O117       Al119   1.907       .  S
O118        C131   1.264       .  A
O118       Al128   1.900       .  S
Al119       O132   1.931       .  S
Al119       O129   1.937       .  S
Al119       O124   1.792       .  S
O120        C127   1.257       .  A
O120       Al128   1.893       .  S
O121        C130   1.257       .  A
O121       Al128   1.901       .  S
O122       Al128   1.886       .  S
O123        C130   1.254       .  A
O124       Al128   1.786       .  S
O125        C126   1.263       .  A
C126       C1165   1.495       .  S
C127       C1514   1.472       .  S
C130       C1053   1.481       .  S
C131        O132   1.268       .  A
C131       C1570   1.490       .  S
O133        C148   1.270       .  A
O133       Al141   1.936       .  S
C134        O144   1.266       .  A
C134        O135   1.263       .  A
C134        C969   1.491       .  S
O135       Al137   1.898       .  S
O136        C138   1.263       .  A
O136       Al137   1.923       .  S
Al137       O145   1.924       .  S
Al137       O147   1.889       .  S
Al137       O146   1.782       .  S
C138        O151   1.261       .  A
C138        C941   1.486       .  S
O139        C149   1.265       .  A
O139       Al141   1.927       .  S
O140        C153   1.264       .  A
O140       Al150   1.921       .  S
Al141       O154   1.889       .  S
Al141       O151   1.905       .  S
Al141       O146   1.780       .  S
O142        C149   1.257       .  A
O142       Al150   1.885       .  S
O143        C152   1.258       .  A
O143       Al150   1.889       .  S
O144       Al150   1.924       .  S
O145        C152   1.264       .  A
O146       Al150   1.777       .  S
O147        C148   1.261       .  A
C148        C997   1.486       .  S
C149       C1262   1.486       .  S
C152       C1122   1.481       .  S
C153        O154   1.261       .  A
C153       C1305   1.479       .  S
O155        C170   1.260       .  A
O155       Al163   1.897       .  S
C156        O166   1.264       .  A
C156        O157   1.263       .  A
C156        C982   1.474       .  S
O157       Al159   1.924       .  S
O158        C160   1.258       .  A
O158       Al159   1.882       .  S
Al159       O167   1.876       .  S
Al159       O169   1.919       .  S
Al159       O168   1.776       .  S
C160        O173   1.271       .  A
C160       C1221   1.480       .  S
O161        C171   1.266       .  A
O161       Al163   1.916       .  S
O162        C175   1.267       .  A
O162       Al172   1.915       .  S
Al163       O176   1.914       .  S
Al163       O173   1.951       .  S
Al163       O168   1.777       .  S
O164        C171   1.262       .  A
O164       Al172   1.910       .  S
O165        C174   1.266       .  A
O165       Al172   1.937       .  S
O166       Al172   1.911       .  S
O167        C174   1.258       .  A
O168       Al172   1.780       .  S
O169        C170   1.262       .  A
C170       C1389   1.486       .  S
C171        C913   1.485       .  S
C174       C1066   1.477       .  S
C175        O176   1.267       .  A
C175       C1010   1.477       .  S
O177        C192   1.254       .  A
O177       Al185   1.865       .  S
C178        O188   1.263       .  A
C178        O179   1.268       .  A
C178        C870   1.487       .  S
O179       Al181   1.935       .  S
O180        C182   1.255       .  A
O180       Al181   1.877       .  S
Al181       O189   1.894       .  S
Al181       O191   1.942       .  S
Al181       O190   1.791       .  S
C182        O195   1.268       .  A
C182       C1094   1.495       .  S
O183        C193   1.257       .  A
O183       Al185   1.895       .  S
O184        C197   1.266       .  A
O184       Al194   1.910       .  S
Al185       O198   1.949       .  S
Al185       O195   1.954       .  S
Al185       O190   1.786       .  S
O186        C193   1.259       .  A
O186       Al194   1.900       .  S
O187        C196   1.260       .  A
O187       Al194   1.908       .  S
O188       Al194   1.891       .  S
O189        C196   1.257       .  A
O190       Al194   1.786       .  S
O191        C192   1.266       .  A
C192        C842   1.492       .  S
C193        C898   1.467       .  S
C196        C801   1.479       .  S
C197        O198   1.272       .  A
C197        C786   1.501       .  S
O199        C214   1.259       .  A
O199       Al207   1.890       .  S
C200        O210   1.268       .  A
C200        O201   1.265       .  A
C200        C857   1.477       .  S
O201       Al203   1.919       .  S
O202        C204   1.258       .  A
O202       Al203   1.882       .  S
Al203       O211   1.904       .  S
Al203       O213   1.924       .  S
Al203       O212   1.775       .  S
C204        O217   1.269       .  A
C204        C689   1.481       .  S
O205        C215   1.262       .  A
O205       Al207   1.910       .  S
O206        C219   1.270       .  A
O206       Al216   1.916       .  S
Al207       O220   1.928       .  S
Al207       O217   1.942       .  S
Al207       O212   1.776       .  S
O208        C215   1.262       .  A
O208       Al216   1.914       .  S
O209        C218   1.266       .  A
O209       Al216   1.935       .  S
O210       Al216   1.920       .  S
O211        C218   1.263       .  A
O212       Al216   1.776       .  S
O213        C214   1.263       .  A
C214        C745   1.488       .  S
C215       C1038   1.493       .  S
C218        C730   1.482       .  S
C219        O220   1.271       .  A
C219        C829   1.485       .  S
O221        C236   1.270       .  A
O221       Al229   1.927       .  S
C222        O232   1.266       .  A
C222        O223   1.265       .  A
C222        C618   1.488       .  S
O223       Al225   1.907       .  S
O224        C226   1.266       .  A
O224       Al225   1.928       .  S
Al225       O233   1.951       .  S
Al225       O235   1.909       .  S
Al225       O234   1.777       .  S
C226        O239   1.265       .  A
C226       C1542   1.497       .  S
O227        C237   1.267       .  A
O227       Al229   1.947       .  S
O228        C241   1.265       .  A
O228       Al238   1.929       .  S
Al229       O242   1.891       .  S
Al229       O239   1.907       .  S
Al229       O234   1.773       .  S
O230        C237   1.251       .  A
O230       Al238   1.861       .  S
O231        C240   1.255       .  A
O231       Al238   1.864       .  S
O232       Al238   1.926       .  S
O233        C240   1.268       .  A
O234       Al238   1.762       .  S
O235        C236   1.267       .  A
C236        C590   1.486       .  S
C237        C633   1.478       .  S
C240        C814   1.487       .  S
C241        O242   1.261       .  A
C241        C674   1.490       .  S
O243        C258   1.259       .  A
O243       Al251   1.893       .  S
C244        O254   1.264       .  A
C244        O245   1.263       .  A
C244        C605   1.471       .  S
O245       Al247   1.916       .  S
O246        C248   1.259       .  A
O246       Al247   1.885       .  S
Al247       O255   1.903       .  S
Al247       O257   1.913       .  S
Al247       O256   1.777       .  S
C248        O261   1.269       .  A
C248        C549   1.494       .  S
O249        C259   1.266       .  A
O249       Al251   1.923       .  S
O250        C263   1.266       .  A
O250       Al260   1.912       .  S
Al251       O264   1.927       .  S
Al251       O261   1.950       .  S
Al251       O256   1.786       .  S
O252        C259   1.262       .  A
O252       Al260   1.898       .  S
O253        C262   1.261       .  A
O253       Al260   1.917       .  S
O254       Al260   1.912       .  S
O255        C262   1.262       .  A
O256       Al260   1.777       .  S
O257        C258   1.262       .  A
C258        C521   1.470       .  S
C259       C1430   1.492       .  S
C262        C717   1.491       .  S
C263        O264   1.267       .  A
C263        C577   1.484       .  S
O265        C280   1.273       .  A
O265       Al273   1.938       .  S
C266        O276   1.272       .  A
C266        O267   1.265       .  A
C266        C478   1.500       .  S
O267       Al269   1.903       .  S
O268        C270   1.267       .  A
O268       Al269   1.936       .  S
Al269       O277   1.957       .  S
Al269       O279   1.907       .  S
Al269       O278   1.773       .  S
C270        O283   1.266       .  A
C270        C926   1.491       .  S
O271        C281   1.269       .  A
O271       Al273   1.973       .  S
O272        C285   1.272       .  A
O272       Al282   1.960       .  S
Al273       O286   1.893       .  S
Al273       O283   1.920       .  S
Al273       O278   1.774       .  S
O274        C281   1.248       .  A
O274       Al282   1.848       .  S
O275        C284   1.257       .  A
O275       Al282   1.889       .  S
O276       Al282   1.945       .  S
O277        C284   1.268       .  A
O278       Al282   1.757       .  S
O279        C280   1.271       .  A
C280        C493   1.491       .  S
C281        C758   1.490       .  S
C284        C437   1.479       .  S
C285        O286   1.261       .  A
C285        C773   1.498       .  S
O287        C302   1.272       .  A
O287       Al295   1.944       .  S
C288        O298   1.268       .  A
C288        O289   1.265       .  A
C288        C506   1.494       .  S
O289       Al291   1.901       .  S
O290        C292   1.263       .  A
O290       Al291   1.928       .  S
Al291       O299   1.921       .  S
Al291       O301   1.900   1_554  S
Al291       O300   1.781       .  S
C292        O305   1.258       .  A
C292        C954   1.482       .  S
O293        C303   1.264       .  A
O293       Al295   1.932   1_554  S
O294        C307   1.268   1_554  A
O294       Al304   1.943       .  S
Al295       O308   1.885       .  S
Al295       O305   1.898   1_556  S
Al295       O300   1.778   1_556  S
O296        C303   1.256       .  A
O296       Al304   1.879       .  S
O297        C306   1.261       .  A
O297       Al304   1.901       .  S
O298       Al304   1.930       .  S
O299        C306   1.263       .  A
O300       Al304   1.780       .  S
O301        C302   1.264       .  A
C302        C465   1.500       .  S
C303        C885   1.485       .  S
C306        C422   1.481       .  S
C307        O308   1.260       .  A
C307        C702   1.485       .  S
O309        C324   1.267       .  A
O309       Al317   1.918       .  S
C310        O320   1.266       .  A
C310        O311   1.266       .  A
C310        C353   1.490       .  S
O311       Al313   1.915   1_556  S
O312        C314   1.267   1_554  A
O312       Al313   1.931       .  S
Al313       O321   1.961       .  S
Al313       O323   1.920       .  S
Al313       O322   1.774   1_554  S
C314        O327   1.265       .  A
C314       C1206   1.485       .  S
O315        C325   1.268       .  A
O315       Al317   1.951   1_556  S
O316        C329   1.266       .  A
O316       Al326   1.929   1_554  S
Al317       O330   1.888       .  S
Al317       O327   1.904   1_554  S
Al317       O322   1.776   1_554  S
O318        C325   1.250       .  A
O318       Al326   1.853       .  S
O319        C328   1.255       .  A
O319       Al326   1.869   1_554  S
O320       Al326   1.927       .  S
O321        C328   1.270       .  A
O322       Al326   1.762       .  S
O323        C324   1.271       .  A
C324        C381   1.496       .  S
C325        C534   1.479       .  S
C328        C409   1.490       .  S
C329        O330   1.260       .  A
C329        C661   1.488       .  S
O331        C346   1.256       .  A
O331       Al339   1.890       .  S
C332        O342   1.266       .  A
C332        O333   1.264       .  A
C332        C366   1.472       .  S
O333       Al335   1.920       .  S
O334        C336   1.263       .  A
O334       Al335   1.894       .  S
Al335       O343   1.913       .  S
Al335       O345   1.923       .  S
Al335       O344   1.780       .  S
C336        O349   1.267       .  A
C336        C562   1.485       .  S
O337        C347   1.260       .  A
O337       Al339   1.896       .  S
O338        C351   1.265       .  A
O338       Al348   1.908       .  S
Al339       O352   1.920       .  S
Al339       O349   1.937       .  S
Al339       O344   1.783       .  S
O340        C347   1.262       .  A
O340       Al348   1.915       .  S
O341        C350   1.263       .  A
O341       Al348   1.917       .  S
O342       Al348   1.913       .  S
O343        C350   1.265       .  A
O344       Al348   1.778       .  S
O345        C346   1.262       .  A
C346        C646   1.468       .  S
C347       C1277   1.473       .  S
C350        C450   1.491       .  S
C351        O352   1.265       .  A
C351        C394   1.476       .  S
C353        C354   1.413       .  A
C353        C358   1.406       .  A
C354        C355   1.406       .  A
C354        N359   1.432       .  S
C355        C356   1.404       .  A
C355        H360   1.084       .  S
C356        C361   1.492       .  S
C356        C357   1.411       .  A
C357        C358   1.408       .  A
C357        N362   1.438       .  S
C358        H363   1.079       .  S
N359        H379   1.046       .  S
N359        H380   1.046       .  S
C361        C364   1.406       .  A
C361        C368   1.413       .  A
N362        H377   1.046       .  S
N362        H378   1.045       .  S
C364        C365   1.406       .  A
C364        H369   1.084       .  S
C365        C366   1.406       .  A
C365        N370   1.438       .  S
C366        C367   1.403       .  A
C367        C368   1.410       .  A
C367        H371   1.084       .  S
C368        N372   1.437       .  S
N370        H373   1.046       .  S
N370        H374   1.045       .  S
N372        H375   1.046       .  S
N372        H376   1.046       .  S
C381        C382   1.421       .  A
C381        C386   1.407       .  A
C382        C383   1.404       .  A
C382        N387   1.439       .  S
C383        C384   1.402       .  A
C383        H388   1.083       .  S
C384        C389   1.497       .  S
C384        C385   1.414       .  A
C385        C386   1.411       .  A
C385        N390   1.437       .  S
C386        H391   1.083       .  S
N387        H407   1.046       .  S
N387        H408   1.046       .  S
C389        C392   1.407       .  A
C389        C396   1.416       .  A
N390        H405   1.045       .  S
N390        H406   1.045       .  S
C392        C393   1.408       .  A
C392        H397   1.083       .  S
C393        C394   1.409       .  A
C393        N398   1.438       .  S
C394        C395   1.402       .  A
C395        C396   1.405       .  A
C395        H399   1.084       .  S
C396        N400   1.438       .  S
N398        H401   1.045       .  S
N398        H402   1.046       .  S
N400        H403   1.046       .  S
N400        H404   1.045       .  S
C409        C410   1.412       .  A
C409        C414   1.409       .  A
C410        C411   1.412       .  A
C410        N415   1.437       .  S
C411        C412   1.407   1_455  A
C411        H416   1.083   1_455  S
C412        C417   1.490       .  S
C412        C413   1.408   1_655  A
C413        C414   1.402       .  A
C413        N418   1.439   1_554  S
C414        H419   1.083       .  S
N415        H435   1.046       .  S
N415        H436   1.045       .  S
C417        C420   1.405       .  A
C417        C424   1.412   1_554  A
N418        H433   1.046       .  S
N418        H434   1.045   1_455  S
C420        C421   1.407       .  A
C420        H425   1.084       .  S
C421        C422   1.412       .  A
C421        N426   1.438       .  S
C422        C423   1.404   1_554  A
C423        C424   1.408       .  A
C423        H427   1.084       .  S
C424        N428   1.437       .  S
N426        H429   1.046       .  S
N426        H430   1.046       .  S
N428        H431   1.046       .  S
N428        H432   1.045       .  S
C437        C438   1.412       .  A
C437        C442   1.403       .  A
C438        C439   1.409       .  A
C438        N443   1.438       .  S
C439        C440   1.402       .  A
C439        H444   1.084       .  S
C440        C445   1.485   1_655  S
C440        C441   1.410       .  A
C441        C442   1.410       .  A
C441        N446   1.437       .  S
C442        H447   1.084       .  S
N443        H463   1.045       .  S
N443        H464   1.046       .  S
C445        C448   1.400       .  A
C445        C452   1.410       .  A
N446        H461   1.046       .  S
N446        H462   1.045       .  S
C448        C449   1.409       .  A
C448        H453   1.084       .  S
C449        C450   1.419       .  A
C449        N454   1.438       .  S
C450        C451   1.405       .  A
C451        C452   1.408       .  A
C451        H455   1.083       .  S
C452        N456   1.438       .  S
N454        H457   1.046       .  S
N454        H458   1.045       .  S
N456        H459   1.045       .  S
N456        H460   1.046   1_455  S
C465        C466   1.420       .  A
C465        C470   1.408       .  A
C466        C467   1.412       .  A
C466        N471   1.438       .  S
C467        C468   1.403       .  A
C467        H472   1.084       .  S
C468        C473   1.495       .  S
C468        C469   1.410       .  A
C469        C470   1.408       .  A
C469        N474   1.438       .  S
C470        H475   1.083       .  S
N471        H491   1.045       .  S
N471        H492   1.046       .  S
C473        C476   1.402       .  A
C473        C480   1.411       .  A
N474        H489   1.046       .  S
N474        H490   1.046       .  S
C476        C477   1.410       .  A
C476        H481   1.084       .  S
C477        C478   1.421       .  A
C477        N482   1.438       .  S
C478        C479   1.409       .  A
C479        C480   1.411       .  A
C479        H483   1.083       .  S
C480        N484   1.438       .  S
N482        H485   1.046       .  S
N482        H486   1.045       .  S
N484        H487   1.045       .  S
N484        H488   1.046       .  S
C493        C494   1.418       .  A
C493        C498   1.407       .  A
C494        C495   1.407       .  A
C494        N499   1.438       .  S
C495        C496   1.401       .  A
C495        H500   1.084       .  S
C496        C501   1.488       .  S
C496        C497   1.410       .  A
C497        C498   1.408       .  A
C497        N502   1.438       .  S
C498        H503   1.083       .  S
N499        H519   1.046       .  S
N499        H520   1.045       .  S
C501        C504   1.402       .  A
C501        C508   1.409       .  A
N502        H517   1.045       .  S
N502        H518   1.046       .  S
C504        C505   1.407       .  A
C504        H509   1.084       .  S
C505        C506   1.418       .  A
C505        N510   1.438       .  S
C506        C507   1.410       .  A
C507        C508   1.408       .  A
C507        H511   1.083       .  S
C508        N512   1.437       .  S
N510        H513   1.046       .  S
N510        H514   1.046       .  S
N512        H515   1.046       .  S
N512        H516   1.045       .  S
C521        C522   1.408       .  A
C521        C526   1.402       .  A
C522        C523   1.406       .  A
C522        N527   1.438       .  S
C523        C524   1.407       .  A
C523        H528   1.084       .  S
C524        C529   1.485       .  S
C524        C525   1.411       .  A
C525        C526   1.401       .  A
C525        N530   1.437       .  S
C526        H531   1.084       .  S
N527        H547   1.046       .  S
N527        H548   1.046       .  S
C529        C532   1.401       .  A
C529        C536   1.413       .  A
N530        H545   1.044       .  S
N530        H546   1.045       .  S
C532        C533   1.395       .  A
C532        H537   1.084       .  S
C533        C534   1.414       .  A
C533        N538   1.435       .  S
C534        C535   1.404       .  A
C535        C536   1.408       .  A
C535        H539   1.083       .  S
C536        N540   1.437       .  S
N538        H541   1.046       .  S
N538        H542   1.045       .  S
N540        H543   1.046       .  S
N540        H544   1.045       .  S
C549        C550   1.417       .  A
C549        C554   1.410       .  A
C550        C551   1.405       .  A
C550        N555   1.438       .  S
C551        C552   1.400       .  A
C551        H556   1.082       .  S
C552        C557   1.487       .  S
C552        C553   1.410       .  A
C553        C554   1.412       .  A
C553        N558   1.438       .  S
C554        H559   1.083       .  S
N555        H575   1.045       .  S
N555        H576   1.045       .  S
C557        C560   1.405       .  A
C557        C564   1.409       .  A
N558        H573   1.046       .  S
N558        H574   1.044       .  S
C560        C561   1.416       .  A
C560        H565   1.083       .  S
C561        C562   1.414       .  A
C561        N566   1.437       .  S
C562        C563   1.404       .  A
C563        C564   1.400       .  A
C563        H567   1.084       .  S
C564        N568   1.439       .  S
N566        H569   1.045       .  S
N566        H570   1.046       .  S
N568        H571   1.045       .  S
N568        H572   1.044       .  S
C577        C578   1.414       .  A
C577        C582   1.405       .  A
C578        C579   1.405       .  A
C578        N583   1.438       .  S
C579        C580   1.402       .  A
C579        H584   1.084       .  S
C580        C585   1.486   1_556  S
C580        C581   1.410       .  A
C581        C582   1.410       .  A
C581        N586   1.437       .  S
C582        H587   1.084       .  S
N583        H603   1.045       .  S
N583        H604   1.046       .  S
C585        C588   1.405       .  A
C585        C592   1.408       .  A
N586        H601   1.046       .  S
N586        H602   1.046       .  S
C588        C589   1.413       .  A
C588        H593   1.083       .  S
C589        C590   1.414       .  A
C589        N594   1.437       .  S
C590        C591   1.405       .  A
C591        C592   1.402       .  A
C591        H595   1.084       .  S
C592        N596   1.438       .  S
N594        H597   1.046       .  S
N594        H598   1.045       .  S
N596        H599   1.045       .  S
N596        H600   1.046       .  S
C605        C606   1.406       .  A
C605        C610   1.401       .  A
C606        C607   1.407       .  A
C606        N611   1.437       .  S
C607        C608   1.407       .  A
C607        H612   1.083       .  S
C608        C613   1.493       .  S
C608        C609   1.414       .  A
C609        C610   1.408       .  A
C609        N614   1.437       .  S
C610        H615   1.084       .  S
N611        H631   1.045       .  S
N611        H632   1.046       .  S
C613        C616   1.404       .  A
C613        C620   1.413       .  A
N614        H629   1.045       .  S
N614        H630   1.046       .  S
C616        C617   1.403       .  A
C616        H621   1.084       .  S
C617        C618   1.412       .  A
C617        N622   1.433       .  S
C618        C619   1.407       .  A
C619        C620   1.409       .  A
C619        H623   1.084       .  S
C620        N624   1.437       .  S
N622        H625   1.045       .  S
N622        H626   1.046       .  S
N624        H627   1.045       .  S
N624        H628   1.046       .  S
C633        C634   1.418       .  A
C633        C638   1.404       .  A
C634        C635   1.395       .  A
C634        N639   1.435       .  S
C635        C636   1.403       .  A
C635        H640   1.083       .  S
C636        C641   1.490       .  S
C636        C637   1.413       .  A
C637        C638   1.406       .  A
C637        N642   1.438       .  S
C638        H643   1.084       .  S
N639        H659   1.046       .  S
N639        H660   1.043       .  S
C641        C644   1.409       .  A
C641        C648   1.412       .  A
N642        H657   1.046       .  S
N642        H658   1.045       .  S
C644        C645   1.407       .  A
C644        H649   1.083       .  S
C645        C646   1.405       .  A
C645        N650   1.437       .  S
C646        C647   1.401       .  A
C647        C648   1.402       .  A
C647        H651   1.084       .  S
C648        N652   1.438       .  S
N650        H653   1.046       .  S
N650        H654   1.046       .  S
N652        H655   1.045       .  S
N652        H656   1.046       .  S
C661        C662   1.415       .  A
C661        C666   1.408       .  A
C662        C663   1.404       .  A
C662        N667   1.432       .  S
C663        C664   1.400       .  A
C663        H668   1.084       .  S
C664        C669   1.478       .  S
C664        C665   1.407       .  A
C665        C666   1.405       .  A
C665        N670   1.438       .  S
C666        H671   1.083       .  S
N667        H687   1.046       .  S
N667        H688   1.045       .  S
C669        C672   1.400       .  A
C669        C676   1.406       .  A
N670        H685   1.046       .  S
N670        H686   1.046       .  S
C672        C673   1.408       .  A
C672        H677   1.084       .  S
C673        C674   1.419       .  A
C673        N678   1.438       .  S
C674        C675   1.408       .  A
C675        C676   1.404       .  A
C675        H679   1.083       .  S
C676        N680   1.438       .  S
N678        H681   1.045       .  S
N678        H682   1.046       .  S
N680        H683   1.046       .  S
N680        H684   1.046       .  S
C689        C690   1.411       .  A
C689        C694   1.402       .  A
C690        C691   1.407       .  A
C690        N695   1.437       .  S
C691        C692   1.405       .  A
C691        H696   1.084       .  S
C692        C697   1.494       .  S
C692        C693   1.415       .  A
C693        C694   1.406       .  A
C693        N698   1.438       .  S
C694        H699   1.084       .  S
N695        H715   1.045       .  S
N695        H716   1.045       .  S
C697        C700   1.400       .  A
C697        C704   1.417       .  A
N698        H713   1.045       .  S
N698        H714   1.046       .  S
C700        C701   1.402       .  A
C700        H705   1.083       .  S
C701        C702   1.417       .  A
C701        N706   1.438       .  S
C702        C703   1.403       .  A
C703        C704   1.412       .  A
C703        H707   1.084       .  S
C704        N708   1.438       .  S
N706        H709   1.046       .  S
N706        H710   1.043       .  S
N708        H711   1.045       .  S
N708        H712   1.046       .  S
C717        C718   1.419       .  A
C717        C722   1.406       .  A
C718        C719   1.407       .  A
C718        N723   1.438       .  S
C719        C720   1.403       .  A
C719        H724   1.083       .  S
C720        C725   1.492   1_455  S
C720        C721   1.412       .  A
C721        C722   1.406       .  A
C721        N726   1.438       .  S
C722        H727   1.083       .  S
N723        H743   1.046       .  S
N723        H744   1.046       .  S
C725        C728   1.406       .  A
C725        C732   1.412       .  A
N726        H741   1.046       .  S
N726        H742   1.045       .  S
C728        C729   1.408       .  A
C728        H733   1.083       .  S
C729        C730   1.409       .  A
C729        N734   1.437       .  S
C730        C731   1.406       .  A
C731        C732   1.406       .  A
C731        H735   1.084       .  S
C732        N736   1.438       .  S
N734        H737   1.046       .  S
N734        H738   1.046       .  S
N736        H739   1.046       .  S
N736        H740   1.046       .  S
C745        C746   1.417       .  A
C745        C750   1.406       .  A
C746        C747   1.404       .  A
C746        N751   1.439       .  S
C747        C748   1.406       .  A
C747        H752   1.083       .  S
C748        C753   1.496       .  S
C748        C749   1.413       .  A
C749        C750   1.407       .  A
C749        N754   1.438       .  S
C750        H755   1.084       .  S
N751        H771   1.040       .  S
N751        H772   1.046       .  S
C753        C756   1.413       .  A
C753        C760   1.411       .  A
N754        H769   1.046       .  S
N754        H770   1.045       .  S
C756        C757   1.415       .  A
C756        H761   1.083       .  S
C757        C758   1.410       .  A
C757        N762   1.436       .  S
C758        C759   1.410       .  A
C759        C760   1.394       .  A
C759        H763   1.083       .  S
C760        N764   1.440       .  S
N762        H765   1.045       .  S
N762        H766   1.046       .  S
N764        H767   1.045       .  S
N764        H768   1.046       .  S
C773        C774   1.415       .  A
C773        C778   1.409       .  A
C774        C775   1.414       .  A
C774        N779   1.438       .  S
C775        C776   1.408       .  A
C775        H780   1.083       .  S
C776        C781   1.505       .  S
C776        C777   1.414       .  A
C777        C778   1.411       .  A
C777        N782   1.438       .  S
C778        H783   1.084       .  S
N779        H799   1.045       .  S
N779        H800   1.046       .  S
C781        C784   1.406       .  A
C781        C788   1.414       .  A
N782        H797   1.046       .  S
N782        H798   1.046       .  S
C784        C785   1.414       .  A
C784        H789   1.083       .  S
C785        C786   1.418       .  A
C785        N790   1.438       .  S
C786        C787   1.407       .  A
C787        C788   1.412       .  A
C787        H791   1.084       .  S
C788        N792   1.438       .  S
N790        H793   1.046       .  S
N790        H794   1.046       .  S
N792        H795   1.045       .  S
N792        H796   1.046       .  S
C801        C802   1.415       .  A
C801        C806   1.406       .  A
C802        C803   1.400       .  A
C802        N807   1.439       .  S
C803        C804   1.399       .  A
C803        H808   1.084       .  S
C804        C809   1.478   1_655  S
C804        C805   1.409       .  A
C805        C806   1.408       .  A
C805        N810   1.437       .  S
C806        H811   1.084       .  S
N807        H827   1.045       .  S
N807        H828   1.046       .  S
C809        C812   1.403       .  A
C809        C816   1.405       .  A
N810        H825   1.045       .  S
N810        H826   1.046       .  S
C812        C813   1.410       .  A
C812        H817   1.084       .  S
C813        C814   1.416       .  A
C813        N818   1.437       .  S
C814        C815   1.409       .  A
C815        C816   1.397       .  A
C815        H819   1.083       .  S
C816        N820   1.439       .  S
N818        H821   1.045       .  S
N818        H822   1.046       .  S
N820        H823   1.046       .  S
N820        H824   1.046   1_455  S
C829        C830   1.412       .  A
C829        C834   1.405       .  A
C830        C831   1.411       .  A
C830        N835   1.437       .  S
C831        C832   1.406       .  A
C831        H836   1.083       .  S
C832        C837   1.493       .  S
C832        C833   1.412       .  A
C833        C834   1.404       .  A
C833        N838   1.438       .  S
C834        H839   1.084       .  S
N835        H855   1.045       .  S
N835        H856   1.046       .  S
C837        C840   1.401       .  A
C837        C844   1.413       .  A
N838        H853   1.045       .  S
N838        H854   1.046       .  S
C840        C841   1.401       .  A
C840        H845   1.084       .  S
C841        C842   1.419       .  A
C841        N846   1.439       .  S
C842        C843   1.408       .  A
C843        C844   1.413       .  A
C843        H847   1.083       .  S
C844        N848   1.437       .  S
N846        H849   1.047       .  S
N846        H850   1.045       .  S
N848        H851   1.045       .  S
N848        H852   1.046       .  S
C857        C858   1.412       .  A
C857        C862   1.403       .  A
C858        C859   1.404       .  A
C858        N863   1.438       .  S
C859        C860   1.403       .  A
C859        H864   1.084       .  S
C860        C865   1.490   1_556  S
C860        C861   1.414       .  A
C861        C862   1.409       .  A
C861        N866   1.437       .  S
C862        H867   1.084       .  S
N863        H883   1.045       .  S
N863        H884   1.045       .  S
C865        C868   1.403       .  A
C865        C872   1.412       .  A
N866        H881   1.046       .  S
N866        H882   1.045       .  S
C868        C869   1.411       .  A
C868        H873   1.083       .  S
C869        C870   1.416       .  A
C869        N874   1.437       .  S
C870        C871   1.404       .  A
C871        C872   1.404       .  A
C871        H875   1.084       .  S
C872        N876   1.438   1_554  S
N874        H877   1.045       .  S
N874        H878   1.046       .  S
N876        H879   1.045   1_556  S
N876        H880   1.044       .  S
C885        C886   1.415       .  A
C885        C890   1.407       .  A
C886        C887   1.403       .  A
C886        N891   1.439       .  S
C887        C888   1.403       .  A
C887        H892   1.084       .  S
C888        C893   1.484       .  S
C888        C889   1.409       .  A
C889        C890   1.407       .  A
C889        N894   1.437       .  S
C890        H895   1.082       .  S
N891        H911   1.045       .  S
N891        H912   1.046       .  S
C893        C896   1.405       .  A
C893        C900   1.411       .  A
N894        H909   1.046       .  S
N894        H910   1.045       .  S
C896        C897   1.402       .  A
C896        H901   1.084       .  S
C897        C898   1.406       .  A
C897        N902   1.438       .  S
C898        C899   1.402       .  A
C899        C900   1.406       .  A
C899        H903   1.084       .  S
C900        N904   1.437       .  S
N902        H905   1.046       .  S
N902        H906   1.045       .  S
N904        H907   1.046       .  S
N904        H908   1.045       .  S
C913        C914   1.411       .  A
C913        C918   1.406       .  A
C914        C915   1.406       .  A
C914        N919   1.432       .  S
C915        C916   1.402       .  A
C915        H920   1.084       .  S
C916        C921   1.490       .  S
C916        C917   1.411       .  A
C917        C918   1.412       .  A
C917        N922   1.437       .  S
C918        H923   1.084       .  S
N919        H939   1.046       .  S
N919        H940   1.045       .  S
C921        C924   1.402       .  A
C921        C928   1.410       .  A
N922        H937   1.046       .  S
N922        H938   1.045       .  S
C924        C925   1.409       .  A
C924        H929   1.084       .  S
C925        C926   1.416       .  A
C925        N930   1.438       .  S
C926        C927   1.406       .  A
C927        C928   1.412       .  A
C927        H931   1.084       .  S
C928        N932   1.437       .  S
N930        H933   1.045       .  S
N930        H934   1.046       .  S
N932        H935   1.046       .  S
N932        H936   1.045       .  S
C941        C942   1.414       .  A
C941        C946   1.407       .  A
C942        C943   1.406       .  A
C942        N947   1.438       .  S
C943        C944   1.401       .  A
C943        H948   1.084       .  S
C944        C949   1.483       .  S
C944        C945   1.410       .  A
C945        C946   1.410       .  A
C945        N950   1.438       .  S
C946        H951   1.084       .  S
N947        H967   1.046       .  S
N947        H968   1.045       .  S
C949        C952   1.402       .  A
C949        C956   1.410       .  A
N950        H965   1.046       .  S
N950        H966   1.043       .  S
C952        C953   1.408       .  A
C952        H957   1.084       .  S
C953        C954   1.413       .  A
C953        N958   1.438   1_554  S
C954        C955   1.405       .  A
C955        C956   1.408       .  A
C955        H959   1.084       .  S
C956        N960   1.438       .  S
N958        H961   1.046       .  S
N958        H962   1.046       .  S
N960        H963   1.046       .  S
N960        H964   1.044       .  S
C969        C970   1.414   1_554  A
C969        C974   1.409   1_554  A
C970        C971   1.402       .  A
C970        N975   1.433       .  S
C971        C972   1.402       .  A
C971        H976   1.084       .  S
C972        C977   1.489       .  S
C972        C973   1.410       .  A
C973        C974   1.409       .  A
C973        N978   1.437       .  S
C974        H979   1.083   1_556  S
N975        H995   1.045       .  S
N975        H996   1.046       .  S
C977        C980   1.404       .  A
C977        C984   1.412       .  A
N978        H993   1.045       .  S
N978        H994   1.046       .  S
C980        C981   1.407       .  A
C980        H985   1.084       .  S
C981        C982   1.410       .  A
C981        N986   1.438       .  S
C982        C983   1.402       .  A
C983        C984   1.408       .  A
C983        H987   1.084       .  S
C984        N988   1.437       .  S
N986        H989   1.045       .  S
N986        H990   1.046       .  S
N988        H991   1.046       .  S
N988        H992   1.046       .  S
C997        C998   1.416       .  A
C997       C1002   1.404       .  A
C998        C999   1.410       .  A
C998       N1003   1.437       .  S
C999       C1000   1.402       .  A
C999       H1004   1.083       .  S
C1000      C1005   1.488       .  S
C1000      C1001   1.412       .  A
C1001      C1002   1.404       .  A
C1001      N1006   1.439       .  S
C1002      H1007   1.084       .  S
N1003      H1023   1.046       .  S
N1003      H1024   1.045       .  S
C1005      C1008   1.402       .  A
C1005      C1012   1.415       .  A
N1006      H1021   1.045       .  S
N1006      H1022   1.047       .  S
C1008      C1009   1.399       .  A
C1008      H1013   1.084       .  S
C1009      C1010   1.409       .  A
C1009      N1014   1.433       .  S
C1010      C1011   1.403       .  A
C1011      C1012   1.412       .  A
C1011      H1015   1.084       .  S
C1012      N1016   1.437       .  S
N1014      H1017   1.046       .  S
N1014      H1018   1.045       .  S
N1016      H1019   1.046       .  S
N1016      H1020   1.045       .  S
C1025      C1026   1.418       .  A
C1025      C1030   1.409       .  A
C1026      C1027   1.403       .  A
C1026      N1031   1.432       .  S
C1027      C1028   1.399       .  A
C1027      H1032   1.084       .  S
C1028      C1033   1.488       .  S
C1028      C1029   1.410       .  A
C1029      C1030   1.413       .  A
C1029      N1034   1.437       .  S
C1030      H1035   1.083       .  S
N1031      H1051   1.046       .  S
N1031      H1052   1.046       .  S
C1033      C1036   1.404       .  A
C1033      C1040   1.407       .  A
N1034      H1049   1.046       .  S
N1034      H1050   1.045       .  S
C1036      C1037   1.413       .  A
C1036      H1041   1.083       .  S
C1037      C1038   1.416       .  A
C1037      N1042   1.437       .  S
C1038      C1039   1.409       .  A
C1039      C1040   1.403       .  A
C1039      H1043   1.083       .  S
C1040      N1044   1.438       .  S
N1042      H1045   1.046       .  S
N1042      H1046   1.045       .  S
N1044      H1047   1.046       .  S
N1044      H1048   1.046       .  S
C1053      C1054   1.411       .  A
C1053      C1058   1.407       .  A
C1054      C1055   1.398       .  A
C1054      N1059   1.433       .  S
C1055      C1056   1.403       .  A
C1055      H1060   1.084       .  S
C1056      C1061   1.483   1_565  S
C1056      C1057   1.410       .  A
C1057      C1058   1.406       .  A
C1057      N1062   1.437       .  S
C1058      H1063   1.083       .  S
N1059      H1079   1.046       .  S
N1059      H1080   1.045       .  S
C1061      C1064   1.405       .  A
C1061      C1068   1.409       .  A
N1062      H1077   1.045       .  S
N1062      H1078   1.046       .  S
C1064      C1065   1.406       .  A
C1064      H1069   1.083       .  S
C1065      C1066   1.412       .  A
C1065      N1070   1.438       .  S
C1066      C1067   1.404       .  A
C1067      C1068   1.401       .  A
C1067      H1071   1.084       .  S
C1068      N1072   1.438       .  S
N1070      H1073   1.045       .  S
N1070      H1074   1.046       .  S
N1072      H1075   1.046       .  S
N1072      H1076   1.045       .  S
C1081      C1082   1.418       .  A
C1081      C1086   1.410       .  A
C1082      C1083   1.413       .  A
C1082      N1087   1.438       .  S
C1083      C1084   1.405       .  A
C1083      H1088   1.083       .  S
C1084      C1089   1.501       .  S
C1084      C1085   1.411       .  A
C1085      C1086   1.411       .  A
C1085      N1090   1.437       .  S
C1086      H1091   1.083       .  S
N1087      H1107   1.046       .  S
N1087      H1108   1.046       .  S
C1089      C1092   1.408       .  A
C1089      C1096   1.411       .  A
N1090      H1105   1.045       .  S
N1090      H1106   1.046       .  S
C1092      C1093   1.415       .  A
C1092      H1097   1.083       .  S
C1093      C1094   1.413       .  A
C1093      N1098   1.437       .  S
C1094      C1095   1.409       .  A
C1095      C1096   1.409       .  A
C1095      H1099   1.084       .  S
C1096      N1100   1.438       .  S
N1098      H1101   1.046       .  S
N1098      H1102   1.045       .  S
N1100      H1103   1.046       .  S
N1100      H1104   1.046       .  S
C1109      C1110   1.415       .  A
C1109      C1114   1.404       .  A
C1110      C1111   1.407       .  A
C1110      N1115   1.438       .  S
C1111      C1112   1.404   1_565  A
C1111      H1116   1.084       .  S
C1112      C1117   1.491       .  S
C1112      C1113   1.413   1_545  A
C1113      C1114   1.406       .  A
C1113      N1118   1.438   1_565  S
C1114      H1119   1.083       .  S
N1115      H1135   1.045       .  S
N1115      H1136   1.046       .  S
C1117      C1120   1.405       .  A
C1117      C1124   1.414       .  A
N1118      H1133   1.045   1_545  S
N1118      H1134   1.046       .  S
C1120      C1121   1.407       .  A
C1120      H1125   1.083       .  S
C1121      C1122   1.412       .  A
C1121      N1126   1.438       .  S
C1122      C1123   1.403       .  A
C1123      C1124   1.405       .  A
C1123      H1127   1.084       .  S
C1124      N1128   1.438       .  S
N1126      H1129   1.045       .  S
N1126      H1130   1.046       .  S
N1128      H1131   1.046       .  S
N1128      H1132   1.045       .  S
C1137      C1138   1.419   1_554  A
C1137      C1142   1.406   1_554  A
C1138      C1139   1.404       .  A
C1138      N1143   1.439   1_556  S
C1139      C1140   1.400       .  A
C1139      H1144   1.084       .  S
C1140      C1145   1.492       .  S
C1140      C1141   1.413       .  A
C1141      C1142   1.413       .  A
C1141      N1146   1.437       .  S
C1142      H1147   1.083   1_556  S
N1143      H1163   1.046       .  S
N1143      H1164   1.045   1_554  S
C1145      C1148   1.402       .  A
C1145      C1152   1.410       .  A
N1146      H1161   1.043       .  S
N1146      H1162   1.047       .  S
C1148      C1149   1.413       .  A
C1148      H1153   1.083       .  S
C1149      C1150   1.420       .  A
C1149      N1154   1.437       .  S
C1150      C1151   1.407       .  A
C1151      C1152   1.402       .  A
C1151      H1155   1.083       .  S
C1152      N1156   1.436       .  S
N1154      H1157   1.045       .  S
N1154      H1158   1.044       .  S
N1156      H1159   1.044       .  S
N1156      H1160   1.045       .  S
C1165      C1166   1.419       .  A
C1165      C1170   1.408       .  A
C1166      C1167   1.413       .  A
C1166      N1171   1.437       .  S
C1167      C1168   1.404       .  A
C1167      H1172   1.083       .  S
C1168      C1173   1.489       .  S
C1168      C1169   1.409       .  A
C1169      C1170   1.401       .  A
C1169      N1174   1.439       .  S
C1170      H1175   1.083       .  S
N1171      H1191   1.046       .  S
N1171      H1192   1.045       .  S
C1173      C1176   1.404       .  A
C1173      C1180   1.413       .  A
N1174      H1189   1.046       .  S
N1174      H1190   1.046       .  S
C1176      C1177   1.404       .  A
C1176      H1181   1.084       .  S
C1177      C1178   1.410       .  A
C1177      N1182   1.438       .  S
C1178      C1179   1.405       .  A
C1179      C1180   1.410       .  A
C1179      H1183   1.084       .  S
C1180      N1184   1.438       .  S
N1182      H1185   1.046       .  S
N1182      H1186   1.046       .  S
N1184      H1187   1.044       .  S
N1184      H1188   1.047       .  S
C1193      C1194   1.412       .  A
C1193      C1198   1.403       .  A
C1194      C1195   1.408       .  A
C1194      N1199   1.438       .  S
C1195      C1196   1.405       .  A
C1195      H1200   1.084       .  S
C1196      C1201   1.493       .  S
C1196      C1197   1.413       .  A
C1197      C1198   1.407       .  A
C1197      N1202   1.438       .  S
C1198      H1203   1.082       .  S
N1199      H1219   1.046       .  S
N1199      H1220   1.045       .  S
C1201      C1204   1.404       .  A
C1201      C1208   1.413       .  A
N1202      H1217   1.046       .  S
N1202      H1218   1.046   1_556  S
C1204      C1205   1.406       .  A
C1204      H1209   1.083       .  S
C1205      C1206   1.414       .  A
C1205      N1210   1.437       .  S
C1206      C1207   1.405       .  A
C1207      C1208   1.409       .  A
C1207      H1211   1.084       .  S
C1208      N1212   1.438       .  S
N1210      H1213   1.045       .  S
N1210      H1214   1.043       .  S
N1212      H1215   1.046   1_556  S
N1212      H1216   1.046   1_556  S
C1221      C1222   1.409       .  A
C1221      C1226   1.405       .  A
C1222      C1223   1.403       .  A
C1222      N1227   1.433       .  S
C1223      C1224   1.406       .  A
C1223      H1228   1.083       .  S
C1224      C1229   1.498       .  S
C1224      C1225   1.415       .  A
C1225      C1226   1.411       .  A
C1225      N1230   1.437       .  S
C1226      H1231   1.084       .  S
N1227      H1247   1.046       .  S
N1227      H1248   1.045       .  S
C1229      C1232   1.407       .  A
C1229      C1236   1.411       .  A
N1230      H1245   1.046       .  S
N1230      H1246   1.046       .  S
C1232      C1233   1.412       .  A
C1232      H1237   1.083       .  S
C1233      C1234   1.415       .  A
C1233      N1238   1.437       .  S
C1234      C1235   1.410       .  A
C1235      C1236   1.407       .  A
C1235      H1239   1.083       .  S
C1236      N1240   1.438       .  S
N1238      H1241   1.046       .  S
N1238      H1242   1.046       .  S
N1240      H1243   1.046       .  S
N1240      H1244   1.045       .  S
C1249      C1250   1.416   1_556  A
C1249      C1254   1.407       .  A
C1250      C1251   1.404       .  A
C1250      N1255   1.439       .  S
C1251      C1252   1.403       .  A
C1251      H1256   1.084       .  S
C1252      C1257   1.484       .  S
C1252      C1253   1.408   1_554  A
C1253      C1254   1.407       .  A
C1253      N1258   1.437       .  S
C1254      H1259   1.083       .  S
N1255      H1275   1.045       .  S
N1255      H1276   1.046       .  S
C1257      C1260   1.403       .  A
C1257      C1264   1.407       .  A
N1258      H1273   1.046       .  S
N1258      H1274   1.045       .  S
C1260      C1261   1.399       .  A
C1260      H1265   1.084   1_554  S
C1261      C1262   1.419       .  A
C1261      N1266   1.434   1_554  S
C1262      C1263   1.409       .  A
C1263      C1264   1.406       .  A
C1263      H1267   1.084       .  S
C1264      N1268   1.437       .  S
N1266      H1269   1.049       .  S
N1266      H1270   1.041   1_556  S
N1268      H1271   1.046       .  S
N1268      H1272   1.045       .  S
C1277      C1278   1.408       .  A
C1277      C1282   1.405       .  A
C1278      C1279   1.406       .  A
C1278      N1283   1.437       .  S
C1279      C1280   1.404       .  A
C1279      H1284   1.084       .  S
C1280      C1285   1.480       .  S
C1280      C1281   1.408       .  A
C1281      C1282   1.406       .  A
C1281      N1286   1.438       .  S
C1282      H1287   1.084       .  S
N1283      H1303   1.045       .  S
N1283      H1304   1.046       .  S
C1285      C1288   1.403       .  A
C1285      C1292   1.408       .  A
N1286      H1301   1.046       .  S
N1286      H1302   1.043       .  S
C1288      C1289   1.406       .  A
C1288      H1293   1.084       .  S
C1289      C1290   1.412       .  A
C1289      N1294   1.438       .  S
C1290      C1291   1.405       .  A
C1291      C1292   1.406       .  A
C1291      H1295   1.084       .  S
C1292      N1296   1.438       .  S
N1294      H1297   1.046       .  S
N1294      H1298   1.045       .  S
N1296      H1299   1.047       .  S
N1296      H1300   1.043       .  S
C1305      C1306   1.411       .  A
C1305      C1310   1.405       .  A
C1306      C1307   1.407       .  A
C1306      N1311   1.438       .  S
C1307      C1308   1.405       .  A
C1307      H1312   1.084       .  S
C1308      C1313   1.485       .  S
C1308      C1309   1.409       .  A
C1309      C1310   1.403       .  A
C1309      N1314   1.438       .  S
C1310      H1315   1.084       .  S
N1311      H1331   1.045       .  S
N1311      H1332   1.046       .  S
C1313      C1316   1.402       .  A
C1313      C1320   1.411       .  A
N1314      H1329   1.045       .  S
N1314      H1330   1.046       .  S
C1316      C1317   1.401       .  A
C1316      H1321   1.084       .  S
C1317      C1318   1.411       .  A
C1317      N1322   1.433       .  S
C1318      C1319   1.406       .  A
C1319      C1320   1.406       .  A
C1319      H1323   1.084       .  S
C1320      N1324   1.438       .  S
N1322      H1325   1.046       .  S
N1322      H1326   1.045       .  S
N1324      H1327   1.045       .  S
N1324      H1328   1.047       .  S
C1333      C1334   1.409       .  A
C1333      C1338   1.404       .  A
C1334      C1335   1.402       .  A
C1334      N1339   1.438       .  S
C1335      C1336   1.403       .  A
C1335      H1340   1.084       .  S
C1336      C1341   1.484       .  S
C1336      C1337   1.412       .  A
C1337      C1338   1.408       .  A
C1337      N1342   1.438       .  S
C1338      H1343   1.084       .  S
N1339      H1359   1.046       .  S
N1339      H1360   1.045       .  S
C1341      C1344   1.404       .  A
C1341      C1348   1.411       .  A
N1342      H1357   1.047       .  S
N1342      H1358   1.045       .  S
C1344      C1345   1.409       .  A
C1344      H1349   1.084       .  S
C1345      C1346   1.414       .  A
C1345      N1350   1.437       .  S
C1346      C1347   1.403       .  A
C1347      C1348   1.400       .  A
C1347      H1351   1.084       .  S
C1348      N1352   1.439       .  S
N1350      H1353   1.046       .  S
N1350      H1354   1.046       .  S
N1352      H1355   1.045       .  S
N1352      H1356   1.046       .  S
C1361      C1362   1.407       .  A
C1361      C1366   1.402       .  A
C1362      C1363   1.401       .  A
C1362      N1367   1.433       .  S
C1363      C1364   1.403       .  A
C1363      H1368   1.084       .  S
C1364      C1369   1.490       .  S
C1364      C1365   1.416       .  A
C1365      C1366   1.409       .  A
C1365      N1370   1.438       .  S
C1366      H1371   1.084       .  S
N1367      H1387   1.045       .  S
N1367      H1388   1.046       .  S
C1369      C1372   1.401       .  A
C1369      C1376   1.413       .  A
N1370      H1385   1.046       .  S
N1370      H1386   1.046       .  S
C1372      C1373   1.407       .  A
C1372      H1377   1.084       .  S
C1373      C1374   1.420       .  A
C1373      N1378   1.437       .  S
C1374      C1375   1.405       .  A
C1375      C1376   1.406       .  A
C1375      H1379   1.083       .  S
C1376      N1380   1.438       .  S
N1378      H1381   1.046       .  S
N1378      H1382   1.046       .  S
N1380      H1383   1.046       .  S
N1380      H1384   1.045       .  S
C1389      C1390   1.414       .  A
C1389      C1394   1.407       .  A
C1390      C1391   1.405       .  A
C1390      N1395   1.432       .  S
C1391      C1392   1.400       .  A
C1391      H1396   1.084       .  S
C1392      C1397   1.478       .  S
C1392      C1393   1.409       .  A
C1393      C1394   1.405       .  A
C1393      N1398   1.438       .  S
C1394      H1399   1.083       .  S
N1395      H1415   1.046       .  S
N1395      H1416   1.045       .  S
C1397      C1400   1.400       .  A
C1397      C1404   1.406       .  A
N1398      H1413   1.046       .  S
N1398      H1414   1.044       .  S
C1400      C1401   1.406       .  A
C1400      H1405   1.084       .  S
C1401      C1402   1.418       .  A
C1401      N1406   1.439       .  S
C1402      C1403   1.408       .  A
C1403      C1404   1.406       .  A
C1403      H1407   1.083       .  S
C1404      N1408   1.438       .  S
N1406      H1409   1.045       .  S
N1406      H1410   1.047       .  S
N1408      H1411   1.045       .  S
N1408      H1412   1.045       .  S
C1417      C1418   1.410       .  A
C1417      C1422   1.407       .  A
C1418      C1419   1.402       .  A
C1418      N1423   1.432       .  S
C1419      C1420   1.403       .  A
C1419      H1424   1.084       .  S
C1420      C1425   1.489       .  S
C1420      C1421   1.411       .  A
C1421      C1422   1.410       .  A
C1421      N1426   1.437       .  S
C1422      H1427   1.083       .  S
N1423      H1443   1.045       .  S
N1423      H1444   1.046       .  S
C1425      C1428   1.408       .  A
C1425      C1432   1.406       .  A
N1426      H1441   1.045       .  S
N1426      H1442   1.046       .  S
C1428      C1429   1.416       .  A
C1428      H1433   1.083       .  S
C1429      C1430   1.415       .  A
C1429      N1434   1.437       .  S
C1430      C1431   1.409       .  A
C1431      C1432   1.398       .  A
C1431      H1435   1.083       .  S
C1432      N1436   1.439       .  S
N1434      H1437   1.046       .  S
N1434      H1438   1.045       .  S
N1436      H1439   1.045       .  S
N1436      H1440   1.046       .  S
C1445      C1446   1.409       .  A
C1445      C1450   1.404       .  A
C1446      C1447   1.399       .  A
C1446      N1451   1.431       .  S
C1447      C1448   1.405       .  A
C1447      H1452   1.084       .  S
C1448      C1453   1.500   1_556  S
C1448      C1449   1.417   1_556  A
C1449      C1450   1.411   1_554  A
C1449      N1454   1.432       .  S
C1450      H1455   1.084   1_556  S
N1451      H1471   1.043       .  S
N1451      H1472   1.044       .  S
C1453      C1456   1.404   1_554  A
C1453      C1460   1.418       .  A
N1454      H1469   1.045       .  S
N1454      H1470   1.046       .  S
C1456      C1457   1.397   1_556  A
C1456      H1461   1.083       .  S
C1457      C1458   1.409       .  A
C1457      N1462   1.430   1_554  S
C1458      C1459   1.407       .  A
C1459      C1460   1.416       .  A
C1459      H1463   1.083       .  S
C1460      N1464   1.436       .  S
N1462      H1465   1.046       .  S
N1462      H1466   1.045       .  S
N1464      H1467   1.048       .  S
N1464      H1468   1.043       .  S
C1473      C1474   1.415       .  A
C1473      C1478   1.407       .  A
C1474      C1475   1.410       .  A
C1474      N1479   1.438       .  S
C1475      C1476   1.406       .  A
C1475      H1480   1.083       .  S
C1476      C1481   1.502   1_565  S
C1476      C1477   1.415       .  A
C1477      C1478   1.410       .  A
C1477      N1482   1.438       .  S
C1478      H1483   1.083       .  S
N1479      H1499   1.045       .  S
N1479      H1500   1.046       .  S
C1481      C1484   1.405       .  A
C1481      C1488   1.415       .  A
N1482      H1497   1.045       .  S
N1482      H1498   1.047   1_565  S
C1484      C1485   1.409       .  A
C1484      H1489   1.083       .  S
C1485      C1486   1.417       .  A
C1485      N1490   1.438       .  S
C1486      C1487   1.407       .  A
C1487      C1488   1.412       .  A
C1487      H1491   1.084       .  S
C1488      N1492   1.438       .  S
N1490      H1493   1.045       .  S
N1490      H1494   1.045       .  S
N1492      H1495   1.046       .  S
N1492      H1496   1.045       .  S
C1501      C1502   1.414       .  A
C1501      C1506   1.407       .  A
C1502      C1503   1.408       .  A
C1502      N1507   1.432       .  S
C1503      C1504   1.404       .  A
C1503      H1508   1.084       .  S
C1504      C1509   1.485       .  S
C1504      C1505   1.407       .  A
C1505      C1506   1.399       .  A
C1505      N1510   1.433       .  S
C1506      H1511   1.083       .  S
N1507      H1527   1.046       .  S
N1507      H1528   1.045       .  S
C1509      C1512   1.404       .  A
C1509      C1516   1.409       .  A
N1510      H1525   1.045       .  S
N1510      H1526   1.046       .  S
C1512      C1513   1.410       .  A
C1512      H1517   1.084       .  S
C1513      C1514   1.412       .  A
C1513      N1518   1.437       .  S
C1514      C1515   1.400       .  A
C1515      C1516   1.399       .  A
C1515      H1519   1.085       .  S
C1516      N1520   1.431       .  S
N1518      H1521   1.047       .  S
N1518      H1522   1.044       .  S
N1520      H1523   1.045       .  S
N1520      H1524   1.046       .  S
C1529      C1530   1.410       .  A
C1529      C1534   1.402       .  A
C1530      C1531   1.407       .  A
C1530      N1535   1.438       .  S
C1531      C1532   1.402       .  A
C1531      H1536   1.084       .  S
C1532      C1537   1.485       .  S
C1532      C1533   1.411       .  A
C1533      C1534   1.410       .  A
C1533      N1538   1.437       .  S
C1534      H1539   1.084       .  S
N1535      H1555   1.045       .  S
N1535      H1556   1.046       .  S
C1537      C1540   1.399       .  A
C1537      C1544   1.407       .  A
N1538      H1553   1.046       .  S
N1538      H1554   1.045       .  S
C1540      C1541   1.407       .  A
C1540      H1545   1.084       .  S
C1541      C1542   1.421       .  A
C1541      N1546   1.438       .  S
C1542      C1543   1.410       .  A
C1543      C1544   1.409       .  A
C1543      H1547   1.083       .  S
C1544      N1548   1.437       .  S
N1546      H1549   1.046       .  S
N1546      H1550   1.045       .  S
N1548      H1551   1.046       .  S
N1548      H1552   1.045       .  S
C1557      C1558   1.411       .  A
C1557      C1562   1.405       .  A
C1558      C1559   1.407       .  A
C1558      N1563   1.433       .  S
C1559      C1560   1.405       .  A
C1559      H1564   1.084       .  S
C1560      C1565   1.492       .  S
C1560      C1561   1.412       .  A
C1561      C1562   1.409       .  A
C1561      N1566   1.437       .  S
C1562      H1567   1.084       .  S
N1563      H1583   1.046       .  S
N1563      H1584   1.045       .  S
C1565      C1568   1.404       .  A
C1565      C1572   1.411       .  A
N1566      H1581   1.041       .  S
N1566      H1582   1.049       .  S
C1568      C1569   1.408       .  A
C1568      H1573   1.084       .  S
C1569      C1570   1.415       .  A
C1569      N1574   1.438       .  S
C1570      C1571   1.407       .  A
C1571      C1572   1.409       .  A
C1571      H1575   1.083       .  S
C1572      N1576   1.437       .  S
N1574      H1577   1.047       .  S
N1574      H1578   1.045       .  S
N1576      H1579   1.044       .  S
N1576      H1580   1.047       .  S
C1585      C1586   1.416       .  A
C1585      C1590   1.405       .  A
C1586      C1587   1.408       .  A
C1586      N1591   1.437       .  S
C1587      C1588   1.402       .  A
C1587      H1592   1.084       .  S
C1588      C1593   1.480   1_565  S
C1588      C1589   1.409       .  A
C1589      C1590   1.398       .  A
C1589      N1594   1.439       .  S
C1590      H1595   1.083       .  S
N1591      H1611   1.046       .  S
N1591      H1612   1.045       .  S
C1593      C1596   1.403       .  A
C1593      C1600   1.411       .  A
N1594      H1609   1.045       .  S
N1594      H1610   1.046   1_565  S
C1596      C1597   1.402       .  A
C1596      H1601   1.084       .  S
C1597      C1598   1.408       .  A
C1597      N1602   1.438       .  S
C1598      C1599   1.402       .  A
C1599      C1600   1.405       .  A
C1599      H1603   1.084       .  S
C1600      N1604   1.438       .  S
N1602      H1605   1.045       .  S
N1602      H1606   1.046       .  S
N1604      H1607   1.046       .  S
N1604      H1608   1.045       .  S
C1613      C1614   1.417       .  A
C1613      C1618   1.409       .  A
C1614      C1615   1.404       .  A
C1614      N1619   1.432       .  S
C1615      C1616   1.400       .  A
C1615      H1620   1.084       .  S
C1616      C1621   1.482       .  S
C1616      C1617   1.406       .  A
C1617      C1618   1.405       .  A
C1617      N1622   1.432       .  S
C1618      H1623   1.084       .  S
N1619      H1639   1.045       .  S
N1619      H1640   1.046       .  S
C1621      C1624   1.401       .  A
C1621      C1628   1.405       .  A
N1622      H1637   1.045       .  S
N1622      H1638   1.046       .  S
C1624      C1625   1.405       .  A
C1624      H1629   1.084       .  S
C1625      C1626   1.417       .  A
C1625      N1630   1.433       .  S
C1626      C1627   1.408       .  A
C1627      C1628   1.405       .  A
C1627      H1631   1.082       .  S
C1628      N1632   1.432       .  S
N1630      H1633   1.045       .  S
N1630      H1634   1.046       .  S
N1632      H1635   1.045       .  S
N1632      H1636   1.046       .  S
C1641      C1642   1.422       .  A
C1641      C1646   1.409       .  A
C1642      C1643   1.408       .  A
C1642      N1647   1.438       .  S
C1643      C1644   1.402       .  A
C1643      H1648   1.084       .  S
C1644      C1649   1.497       .  S
C1644      C1645   1.412       .  A
C1645      C1646   1.413       .  A
C1645      N1650   1.437       .  S
C1646      H1651   1.083       .  S
N1647      H1667   1.046       .  S
N1647      H1668   1.046       .  S
C1649      C1652   1.404       .  A
C1649      C1656   1.412       .  A
N1650      H1665   1.047       .  S
N1650      H1666   1.045       .  S
C1652      C1653   1.410       .  A
C1652      H1657   1.084       .  S
C1653      C1654   1.418       .  A
C1653      N1658   1.438       .  S
C1654      C1655   1.408       .  A
C1655      C1656   1.410       .  A
C1655      H1659   1.083   1_554  S
C1656      N1660   1.437       .  S
N1658      H1661   1.047       .  S
N1658      H1662   1.044       .  S
N1660      H1663   1.047       .  S
N1660      H1664   1.044       .  S
C1669      C1670   1.411       .  A
C1669      C1674   1.404       .  A
C1670      C1671   1.395       .  A
C1670      N1675   1.433       .  S
C1671      C1672   1.403       .  A
C1671      H1676   1.084       .  S
C1672      C1677   1.487       .  S
C1672      C1673   1.414       .  A
C1673      C1674   1.406       .  A
C1673      N1678   1.437       .  S
C1674      H1679   1.084       .  S
N1675      H1695   1.043       .  S
N1675      H1696   1.046       .  S
C1677      C1680   1.409       .  A
C1677      C1684   1.407       .  A
N1678      H1693   1.046       .  S
N1678      H1694   1.044       .  S
C1680      C1681   1.409       .  A
C1680      H1685   1.083       .  S
C1681      C1682   1.410       .  A
C1681      N1686   1.431       .  S
C1682      C1683   1.409       .  A
C1683      C1684   1.390       .  A
C1683      H1687   1.084       .  S
C1684      N1688   1.434       .  S
N1686      H1689   1.046       .  S
N1686      H1690   1.046       .  S
N1688      H1691   1.046       .  S
N1688      H1692   1.045       .  S
