geometry optimzed in LAMMPS
_audit_creation_date              2020-11-30 
_audit_creation_method            'lammps2cif' 
_symmetry_space_group_name_H-M    'P1' 
_symmetry_Int_Tables_number       1 
_symmetry_cell_setting            triclinic 
loop_ 
_symmetry_equiv_pos_as_xyz 
  x,y,z 
_cell_length_a                    40.31988092 
_cell_length_b                    40.36256550376543 
_cell_length_c                    43.00606986621865 
_cell_angle_alpha                 90.02059569800859 
_cell_angle_beta                  90.2885696004393 
_cell_angle_gamma                 120.68974778513856 
loop_ 
_atom_site_label 
_atom_site_type_symbol 
_atom_site_fract_x 
_atom_site_fract_y 
_atom_site_fract_z 
_atom_site_charge 
Fe1        Fe  0.32812637  0.53996059  0.58343404     1.65800
Fe2        Fe  0.38259815  0.51698006  0.62678289     1.73200
Fe3        Fe  0.28414464  0.45813060  0.62553517     1.54400
O4          O  0.25293593  0.48704329  0.62912995    -0.81800
O5          O  0.37144078  0.46406911  0.61249758    -0.80100
O6          O  0.29334196  0.54726330  0.61331666    -0.84300
O7          O  0.28124000  0.49729126  0.55957510    -0.79200
O8          O  0.29918670  0.47107754  0.67144135    -0.81000
O9          O  0.40904048  0.53874953  0.58397439    -0.83700
C10         C  0.26238613  0.46080581  0.55904906     0.97100
C11         C  0.26248265  0.52236078  0.62638081     1.04500
O12         O  0.33155062  0.50490345  0.61215377    -1.12700
O13         O  0.39877988  0.57189291  0.64176759    -0.75100
O14         O  0.37430729  0.58881665  0.60268251    -0.78600
O15         O  0.26436427  0.44056348  0.58063715    -0.79300
C16         C  0.39617430  0.59720340  0.62631408     0.96000
O17         O  0.36303087  0.53415911  0.55218291    -0.77300
O18         O  0.36298045  0.49706954  0.67144517    -0.82400
C19         C  0.34259743  0.43034100  0.61529666     0.98600
C20         C  0.33095300  0.48305411  0.68564384     1.04500
O21         O  0.30939910  0.42363472  0.62361391    -0.78100
C22         C  0.39667878  0.54007879  0.55698307     1.02800
Fe23       Fe  0.20447007  0.67424999  0.58585353     1.65800
Fe24       Fe  0.12277414  0.62388863  0.62603875     1.73200
Fe25       Fe  0.17079036  0.72263597  0.62615720     1.54400
O26         O  0.23115239  0.75000095  0.63173942    -0.81800
O27         O  0.08442494  0.63893001  0.61032302    -0.80100
O28         O  0.24665121  0.70649925  0.61728200    -0.84300
O29         O  0.21467532  0.72278883  0.56190935    -0.79200
O30         O  0.16498899  0.70647420  0.67214258    -0.81000
O31         O  0.11774055  0.59733390  0.58322931    -0.83700
C32         C  0.19988994  0.74389835  0.56040664     0.97100
C33         C  0.25517776  0.73833184  0.62979291     1.04500
O34         O  0.16592080  0.67369489  0.61287781    -1.12700
O35         O  0.15760636  0.60409026  0.64275261    -0.75100
O36         O  0.20129736  0.62568047  0.60517422    -0.78600
O37         O  0.17728249  0.74350289  0.58103098    -0.79300
C38         C  0.18486307  0.60404009  0.62831333     0.96000
O39         O  0.16360326  0.64204812  0.55315090    -0.77300
O40         O  0.12230752  0.64346564  0.67052270    -0.82400
C41         C  0.08254414  0.66908652  0.61398288     0.98600
C42         C  0.14232198  0.67477193  0.68551624     1.04500
O43         O  0.11126790  0.70132877  0.62251991    -0.78100
C44         C  0.13351181  0.60941325  0.55686909     1.02800
Fe45       Fe  0.46973898  0.81449952  0.58050435     1.65800
Fe46       Fe  0.50073588  0.89166645  0.62801308     1.73200
Fe47       Fe  0.55088402  0.84349487  0.62334782     1.54400
O48         O  0.51449367  0.78566076  0.63510960    -0.81800
O49         O  0.55869850  0.93075814  0.62533077    -0.80100
O50         O  0.46810236  0.76713323  0.59937250    -0.84300
O51         O  0.51149207  0.82290806  0.54943230    -0.79200
O52         O  0.54829035  0.85720328  0.66948329    -0.81000
O53         O  0.49478689  0.91104695  0.58508129    -0.83700
C54         C  0.54271875  0.82294122  0.55264908     0.97100
C55         C  0.48387632  0.75983338  0.62175888     1.04500
O56         O  0.50729540  0.85004824  0.61063576    -1.12700
O57         O  0.44126387  0.85781893  0.63298378    -0.75100
O58         O  0.42440492  0.80256947  0.60885742    -0.78600
O59         O  0.55923625  0.82764938  0.57893715    -0.79300
C60         C  0.41664870  0.82315904  0.62605641     0.96000
O61         O  0.46571796  0.85668550  0.55748882    -0.77300
O62         O  0.50619280  0.87730917  0.67256742    -0.82400
C63         C  0.58917825  0.93127014  0.61731710     0.98600
C64         C  0.52800586  0.86703687  0.68514424     1.04500
O65         O  0.59091167  0.90094319  0.61307000    -0.78100
C66         C  0.47811639  0.89229280  0.56066462     1.02800
Fe67       Fe  0.20776588  0.53796872  0.42399430     1.65800
Fe68       Fe  0.12956664  0.51323373  0.37938595     1.73200
Fe69       Fe  0.17073155  0.45632680  0.38036007     1.54400
O70         O  0.23099497  0.48726782  0.37528078    -0.81800
O71         O  0.08718961  0.45896580  0.39098743    -0.80100
O72         O  0.25151605  0.54558044  0.39575328    -0.84300
O73         O  0.21034758  0.49589066  0.44885025    -0.79200
O74         O  0.16634724  0.46777706  0.33423484    -0.81000
O75         O  0.12207187  0.53192662  0.42250726    -0.83700
C76         C  0.19538539  0.45970151  0.44789661     0.97100
C77         C  0.25723970  0.52216882  0.38042116     1.04500
O78         O  0.16929511  0.50233673  0.39442817    -1.12700
O79         O  0.16817217  0.56920268  0.36648570    -0.75100
O80         O  0.21221256  0.58649529  0.40391938    -0.78600
O81         O  0.17566105  0.43938143  0.42493071    -0.79300
C82         C  0.19769423  0.59451620  0.38099351     0.96000
O83         O  0.16623168  0.53242907  0.45421292    -0.77300
O84         O  0.13184292  0.49668075  0.33427990    -0.82400
C85         C  0.08329009  0.42578903  0.38987531     0.98600
C86         C  0.14864501  0.48179539  0.32002147     1.04500
O87         O  0.11084415  0.42002573  0.38380150    -0.78100
C88         C  0.13663313  0.53503072  0.44939390     1.02800
Fe89       Fe  0.34516155  0.81174640  0.42561707     1.65800
Fe90       Fe  0.39265278  0.89118616  0.38076892     1.73200
Fe91       Fe  0.29283925  0.84022903  0.38270137     1.54400
O92         O  0.26832783  0.78067982  0.37596794    -0.81800
O93         O  0.37559522  0.92939994  0.39200677    -0.80100
O94         O  0.30890820  0.76574262  0.39864623    -0.84300
O95         O  0.30049103  0.80609623  0.45232613    -0.79200
O96         O  0.30839280  0.84753168  0.33648246    -0.81000
O97         O  0.42038137  0.90324468  0.42377008    -0.83700
C98         C  0.27513639  0.81565326  0.45101652     0.97100
C99         C  0.27931491  0.75685934  0.38223623     1.04500
O100        O  0.34342677  0.84774435  0.39623532    -1.12700
O101        O  0.41520727  0.85729655  0.36795214    -0.75100
O102        O  0.39007531  0.81100880  0.40354351    -0.78600
O103        O  0.27029284  0.83144173  0.42732001    -0.79300
C104        C  0.41257028  0.82795553  0.38102207     0.96000
O105        O  0.38125444  0.85509657  0.45501863    -0.77300
O106        O  0.37221862  0.88550895  0.33571784    -0.82400
C107        C  0.34395464  0.92897743  0.39237789     0.98600
C108        C  0.33984978  0.86685733  0.32187927     1.04500
O109        O  0.31127634  0.89872884  0.38768736    -0.78100
C110        C  0.41075773  0.88786630  0.45044847     1.02800
Fe111      Fe  0.47020740  0.67762783  0.41862317     1.65800
Fe112      Fe  0.50069359  0.62662853  0.37916749     1.73200
Fe113      Fe  0.55432792  0.72541823  0.38031134     1.54400
O114        O  0.52255348  0.75358394  0.37533424    -0.81800
O115        O  0.55464014  0.64126382  0.39416458    -0.80100
O116        O  0.46161669  0.70962043  0.38648032    -0.84300
O117        O  0.50928951  0.72673573  0.44237586    -0.79200
O118        O  0.54372689  0.70996565  0.33412580    -0.81000
O119        O  0.47940997  0.60085444  0.42236429    -0.83700
C120        C  0.54561141  0.74733058  0.44497729     0.97100
C121        C  0.48660948  0.74228570  0.37598646     1.04500
O122        O  0.50863043  0.67652310  0.39254649    -1.12700
O123        O  0.44540429  0.60625123  0.36270733    -0.75100
O124        O  0.42383281  0.62895249  0.39946730    -0.78600
O125        O  0.56839898  0.74520944  0.42590378    -0.79300
C126        C  0.41814811  0.60671946  0.37670650     0.96000
O127        O  0.47764264  0.64564929  0.45168164    -0.77300
O128        O  0.52018112  0.64646263  0.33461024    -0.82400
C129        C  0.58749483  0.67126265  0.39099848     0.98600
C130        C  0.53256043  0.67815269  0.32020108     1.04500
O131        O  0.59199072  0.70384061  0.38341202    -0.78100
C132        C  0.47515880  0.61322522  0.44844229     1.02800
Fe133      Fe  0.62193256  0.50419815  0.37918270     1.65800
Fe134      Fe  0.67526122  0.47907319  0.42299719     1.73200
Fe135      Fe  0.72168967  0.56072422  0.37990278     1.54400
O136        O  0.70476497  0.54929667  0.33391857    -0.81800
O137        O  0.72072844  0.52079629  0.44808546    -0.80100
O138        O  0.64052344  0.51910377  0.33384144    -0.84300
O139        O  0.63584464  0.55930019  0.38978982    -0.79200
O140        O  0.75003906  0.52950879  0.37395236    -0.81000
O141        O  0.63965793  0.48450355  0.45341512    -0.83700
C142        C  0.66611332  0.59233923  0.38919278     0.97100
C143        C  0.67259473  0.53441292  0.31971266     1.04500
O144        O  0.67302692  0.51485668  0.39387259    -1.12700
O145        O  0.63028985  0.43060495  0.40292690    -0.75100
O146        O  0.60165816  0.44715707  0.36708654    -0.78600
O147        O  0.69954483  0.59759977  0.38394691    -0.79300
C148        C  0.60623677  0.42207077  0.38097151     0.96000
O149        O  0.59649747  0.48761799  0.42282525    -0.77300
O150        O  0.71103980  0.47157082  0.39457248    -0.82400
C151        C  0.74327302  0.55684960  0.44739881     0.98600
C152        C  0.74057241  0.49463337  0.37910296     1.04500
O153        O  0.74475163  0.57741947  0.42453420    -0.78100
C154        C  0.60819194  0.48382911  0.44936982     1.02800
Fe155      Fe  0.50849646  0.39385746  0.62701347     1.65800
Fe156      Fe  0.53580813  0.34338260  0.58323870     1.73200
Fe157      Fe  0.45275330  0.29502111  0.62344229     1.54400
O158        O  0.46302841  0.30913263  0.66984859    -0.81800
O159        O  0.49552665  0.29587916  0.55826198    -0.80100
O160        O  0.48799386  0.37264331  0.67109079    -0.84300
O161        O  0.45534352  0.38145684  0.61206087    -0.79200
O162        O  0.48430644  0.26636954  0.62814589    -0.81000
O163        O  0.52874023  0.37802919  0.55253998    -0.83700
C164        C  0.42206333  0.35161362  0.61350048     0.97100
C165        C  0.47432586  0.34032156  0.68467176     1.04500
O166        O  0.49876631  0.34392921  0.61140902    -1.12700
O167        O  0.58314759  0.39026188  0.60377161    -0.75100
O168        O  0.56307999  0.41102052  0.64319863    -0.78600
O169        O  0.41636820  0.31824716  0.62015221    -0.79300
C170        C  0.58966228  0.41055134  0.62809301     0.96000
O171        O  0.53112287  0.42231636  0.58499635    -0.77300
O172        O  0.54416978  0.30885928  0.61270834    -0.82400
C173        C  0.45921606  0.27392347  0.55744723     0.98600
C174        C  0.52003003  0.27718594  0.62526204     1.04500
O175        O  0.43739820  0.27482955  0.57812549    -0.78100
C176        C  0.53363089  0.41112134  0.55790639     1.02800
Fe177      Fe  0.50650104  0.12724022  0.37883388     1.65800
Fe178      Fe  0.53493134  0.20369611  0.42685525     1.73200
Fe179      Fe  0.45451949  0.17414509  0.38200534     1.54400
O180        O  0.46328865  0.16762334  0.33550164    -0.81800
O181        O  0.49381038  0.20498531  0.45351932    -0.80100
O182        O  0.49308992  0.13409970  0.33396329    -0.84300
O183        O  0.45062755  0.08679774  0.38800014    -0.79200
O184        O  0.48949353  0.23401752  0.37615236    -0.81000
O185        O  0.52832346  0.15958671  0.45441363    -0.83700
C186        C  0.41866435  0.08557728  0.38978990     0.97100
C187        C  0.47747474  0.15066810  0.32051325     1.04500
O188        O  0.49854568  0.16840635  0.39572018    -1.12700
O189        O  0.58253496  0.20830009  0.40517593    -0.75100
O190        O  0.56377166  0.16363760  0.36814161    -0.78600
O191        O  0.41505513  0.11500982  0.38671220    -0.79300
C192        C  0.58965694  0.19289904  0.38250223     0.96000
O193        O  0.52155273  0.11407803  0.42128445    -0.77300
O194        O  0.54409164  0.25081959  0.40208228    -0.82400
C195        C  0.45891616  0.19587725  0.45130438     0.98600
C196        C  0.52376235  0.25893344  0.38463554     1.04500
O197        O  0.43933431  0.18215448  0.42652717    -0.78100
C198        C  0.52686913  0.12820003  0.44843971     1.02800
Fe199      Fe  0.88036672  0.50504281  0.62787538     1.65800
Fe200      Fe  0.80131324  0.47787007  0.58339415     1.73200
Fe201      Fe  0.83658225  0.55981811  0.62649063     1.54400
O202        O  0.84269605  0.54974084  0.67255233    -0.81800
O203        O  0.79796552  0.51890223  0.55759653    -0.80100
O204        O  0.87726316  0.52090293  0.67293715    -0.84300
O205        O  0.92164228  0.55974821  0.61633382    -0.79200
O206        O  0.77659815  0.52746560  0.63304527    -0.81000
O207        O  0.84298788  0.48345146  0.55341207    -0.83700
C208        C  0.92437965  0.59243092  0.61624691     0.97100
C209        C  0.86021337  0.53567040  0.68692657     1.04500
O210        O  0.83947156  0.51441208  0.61271731    -1.12700
O211        O  0.79781942  0.43026308  0.60437510    -0.75100
O212        O  0.84331335  0.44872966  0.64072099    -0.78600
O213        O  0.89612383  0.59734927  0.62163440    -0.79300
C214        C  0.81354379  0.42293702  0.62682304     0.96000
O215        O  0.88889503  0.48717969  0.58488616    -0.77300
O216        O  0.75732172  0.47008901  0.61132499    -0.82400
C217        C  0.81100136  0.55478728  0.55865817     0.98600
C218        C  0.75092441  0.49247832  0.62749120     1.04500
O219        O  0.82936027  0.57541086  0.58196180    -0.78100
C220        C  0.87370788  0.48288515  0.55815110     1.02800
Fe221      Fe  0.80328221  0.34555993  0.42234604     1.65800
Fe222      Fe  0.88350844  0.39618100  0.38021936     1.73200
Fe223      Fe  0.83659813  0.29748705  0.38139729     1.54400
O224        O  0.83224909  0.27773542  0.42675015    -0.81800
O225        O  0.88163140  0.37585325  0.33554138    -0.80100
O226        O  0.79403409  0.29718576  0.44624655    -0.84300
O227        O  0.76005093  0.31257573  0.39174466    -0.79200
O228        O  0.89611170  0.31924735  0.38345542    -0.81000
O229        O  0.84770221  0.41540118  0.36484339    -0.83700
C230        C  0.75167316  0.28031388  0.38016822     0.97100
C231        C  0.80927534  0.27645206  0.44743782     1.04500
O232        O  0.84124018  0.34636712  0.39443476    -1.12700
O233        O  0.89027632  0.42301521  0.42316769    -0.75100
O234        O  0.84532069  0.37842747  0.45402317    -0.78600
O235        O  0.77622263  0.26941116  0.37774055    -0.79300
C236        C  0.87547068  0.41093288  0.44983284     0.96000
O237        O  0.80510484  0.39350950  0.40321435    -0.77300
O238        O  0.92305408  0.38193999  0.39444985    -0.82400
C239        C  0.86135048  0.34412886  0.32109830     0.98600
C240        C  0.92493971  0.35173522  0.39120443     1.04500
O241        O  0.84012960  0.31248951  0.33512569    -0.78100
C242        C  0.82023599  0.41462604  0.37957809     1.02800
Fe243      Fe  0.66641497  0.20793667  0.58083560     1.65800
Fe244      Fe  0.61615353  0.12898591  0.62614778     1.73200
Fe245      Fe  0.71645545  0.17722351  0.62478839     1.54400
O246        O  0.74107383  0.18790247  0.58059098    -0.81800
O247        O  0.63529768  0.13733177  0.67144873    -0.80100
O248        O  0.70821076  0.20880105  0.55355759    -0.84300
O249        O  0.70598711  0.25397290  0.60626327    -0.79200
O250        O  0.69702997  0.11884153  0.61849967    -0.81000
O251        O  0.59277791  0.16346605  0.63540923    -0.83700
C252        C  0.73352731  0.26137976  0.62472058     0.97100
C253        C  0.73475832  0.20102095  0.55584057     1.04500
O254        O  0.66641703  0.17130589  0.61065226    -1.12700
O255        O  0.59010733  0.11487152  0.58274012    -0.75100
O256        O  0.62698092  0.16518685  0.55246078    -0.78600
O257        O  0.74191239  0.23629803  0.63314313    -0.79300
C258        C  0.59855836  0.13155067  0.55657444     0.96000
O259        O  0.62456711  0.21321352  0.60361951    -0.77300
O260        O  0.63259896  0.08919290  0.61868182    -0.82400
C261        C  0.66768732  0.15263201  0.68526250     0.98600
C262        C  0.66373424  0.08874963  0.61654826     1.04500
O263        O  0.69945158  0.16823017  0.67074507    -0.78100
C264        C  0.59888057  0.19497034  0.62384902     1.02800
Fe265      Fe  0.67094141  0.47655388  0.08397871     1.65800
Fe266      Fe  0.61958335  0.50594371  0.12503648     1.73200
Fe267      Fe  0.71887150  0.55934646  0.12523664     1.54400
O268        O  0.74743053  0.52795313  0.12974446    -0.81800
O269        O  0.63475077  0.56045490  0.11198450    -0.80100
O270        O  0.70517604  0.46806550  0.11423511    -0.84300
O271        O  0.71833699  0.51703527  0.05983373    -0.79200
O272        O  0.70254344  0.54713276  0.17098990    -0.81000
O273        O  0.59380929  0.48697583  0.08150302    -0.83700
C274        C  0.74001828  0.55332966  0.05925735     0.97100
C275        C  0.73697630  0.49245026  0.12674970     1.04500
O276        O  0.66978602  0.51406580  0.11153732    -1.12700
O277        O  0.59821025  0.44986573  0.13922168    -0.75100
O278        O  0.62388859  0.42954856  0.10386526    -0.78600
O279        O  0.73984120  0.57519795  0.08038100    -0.79300
C280        C  0.60061026  0.42323532  0.12589297     0.96000
O281        O  0.63699206  0.48302122  0.05189769    -0.77300
O282        O  0.63893363  0.52317243  0.17031695    -0.82400
C283        C  0.66510517  0.59305798  0.11505418     0.98600
C284        C  0.67067799  0.53529932  0.18485020     1.04500
O285        O  0.69760857  0.59719443  0.12261003    -0.78100
C286        C  0.60538742  0.48221269  0.05533835     1.02800
Fe287      Fe  0.53121369  0.33533780  0.92286851     1.65800
Fe288      Fe  0.50592861  0.38741040  0.87829261     1.73200
Fe289      Fe  0.44842028  0.28809435  0.88010553     1.54400
O290        O  0.47970876  0.25965822  0.87388815    -0.81800
O291        O  0.45189811  0.37490279  0.89091563    -0.80100
O292        O  0.53788429  0.29844725  0.89502314    -0.84300
O293        O  0.48964941  0.29110661  0.94858702    -0.79200
O294        O  0.45778347  0.30334775  0.83376630    -0.81000
O295        O  0.52627684  0.41522113  0.92082781    -0.83700
C296        C  0.45350386  0.26876093  0.94798410     0.97100
C297        C  0.51463439  0.26895966  0.87934425     1.04500
O298        O  0.49500831  0.33676305  0.89353263    -1.12700
O299        O  0.56174112  0.40527221  0.86452805    -0.75100
O300        O  0.57946967  0.37963262  0.90210595    -0.78600
O301        O  0.43279500  0.26612423  0.92478328    -0.79300
C302        C  0.58730943  0.40197816  0.87909887     0.96000
O303        O  0.52661532  0.37203693  0.95282223    -0.77300
O304        O  0.48775491  0.36735067  0.83369024    -0.82400
C305        C  0.41850473  0.34501973  0.89084253     0.98600
C306        C  0.47173543  0.33520865  0.81953628     1.04500
O307        O  0.41230853  0.31128604  0.88500309    -0.78100
C308        C  0.52973022  0.40437419  0.94773655     1.02800
Fe309      Fe  0.66802539  0.20971778  0.92062371     1.65800
Fe310      Fe  0.61632489  0.12886137  0.87913815     1.73200
Fe311      Fe  0.71494992  0.17511464  0.88002090     1.54400
O312        O  0.74335672  0.23537077  0.87639980    -0.81800
O313        O  0.63061188  0.08944776  0.89309059    -0.80100
O314        O  0.70005446  0.25183332  0.88915743    -0.84300
O315        O  0.71716421  0.21942289  0.94379663    -0.79200
O316        O  0.69935128  0.17174500  0.83407953    -0.81000
O317        O  0.59081297  0.12281665  0.92244512    -0.83700
C318        C  0.73707909  0.20331477  0.94553304     0.97100
C319        C  0.73218098  0.25976850  0.87765804     1.04500
O320        O  0.66640940  0.17104327  0.89306551    -1.12700
O321        O  0.59674837  0.16443129  0.86398412    -0.75100
O322        O  0.61932209  0.20750705  0.90223960    -0.78600
O323        O  0.73477777  0.17926883  0.92536955    -0.79300
C324        C  0.59752041  0.19186776  0.87884830     0.96000
O325        O  0.63610968  0.16848860  0.95290275    -0.77300
O326        O  0.63587918  0.13036090  0.83434700    -0.82400
C327        C  0.66053691  0.08716677  0.88955093     0.98600
C328        C  0.66751058  0.15073055  0.82001768     1.04500
O329        O  0.69298183  0.11564508  0.88159718    -0.78100
C330        C  0.60350205  0.13818938  0.94901753     1.02800
Fe331      Fe  0.80454398  0.47314736  0.92602563     1.65800
Fe332      Fe  0.88312870  0.50401091  0.88050366     1.73200
Fe333      Fe  0.83454912  0.55423113  0.88248216     1.54400
O334        O  0.77472556  0.51879772  0.87544741    -0.81800
O335        O  0.92272306  0.55984628  0.89114289    -0.80100
O336        O  0.75818757  0.46375241  0.89991566    -0.84300
O337        O  0.80172772  0.51354515  0.95294193    -0.79200
O338        O  0.84160938  0.54565661  0.83628095    -0.81000
O339        O  0.89514113  0.48823561  0.92326657    -0.83700
C340        C  0.81125174  0.54857868  0.95115454     0.97100
C341        C  0.75008244  0.48405996  0.88260669     1.04500
O342        O  0.84078156  0.51064029  0.89626087    -1.12700
O343        O  0.84776130  0.44711060  0.86813014    -0.75100
O344        O  0.80141830  0.42651553  0.90359601    -0.78600
O345        O  0.82587581  0.56862704  0.92692020    -0.79300
C346        C  0.81801009  0.42054598  0.88119542     0.96000
O347        O  0.84775538  0.47941377  0.95490140    -0.77300
O348        O  0.87745835  0.51827906  0.83557100    -0.82400
C349        C  0.92350776  0.59162413  0.89185088     0.98600
C350        C  0.85995076  0.53271236  0.82174637     1.04500
O351        O  0.89372324  0.59453359  0.88774441    -0.78100
C352        C  0.87987033  0.48195096  0.94996727     1.02800
Fe353      Fe  0.53271663  0.21189803  0.08220758     1.65800
Fe354      Fe  0.50719159  0.13371573  0.12635552     1.73200
Fe355      Fe  0.45099253  0.17556349  0.12526777     1.54400
O356        O  0.48220641  0.23595116  0.13101237    -0.81800
O357        O  0.45312806  0.09159107  0.11322269    -0.80100
O358        O  0.54004363  0.25566462  0.11028781    -0.84300
O359        O  0.49076354  0.21459078  0.05698643    -0.79200
O360        O  0.46237439  0.17120037  0.17131692    -0.81000
O361        O  0.52730211  0.12672991  0.08384968    -0.83700
C362        C  0.45467455  0.20065229  0.05807029     0.97100
C363        C  0.51716975  0.26192815  0.12581342     1.04500
O364        O  0.49677336  0.17368926  0.11136525    -1.12700
O365        O  0.56279822  0.17235835  0.14057492    -0.75100
O366        O  0.58093614  0.21630348  0.10324581    -0.78600
O367        O  0.43421332  0.18086899  0.08075170    -0.79300
C368        C  0.58846677  0.20170023  0.12636720     0.96000
O369        O  0.52778284  0.17041377  0.05192816    -0.77300
O370        O  0.48935579  0.13498347  0.17116501    -0.82400
C371        C  0.41998684  0.08778255  0.11494471     0.98600
C372        C  0.47528956  0.15252542  0.18546034     1.04500
O373        O  0.41454721  0.11551710  0.12141349    -0.78100
C374        C  0.53086610  0.14117808  0.05699567     1.02800
Fe375      Fe  0.80492350  0.34716582  0.08161767     1.65800
Fe376      Fe  0.88491894  0.39501162  0.12717900     1.73200
Fe377      Fe  0.83364510  0.29503683  0.12490757     1.54400
O378        O  0.77542118  0.27286251  0.13540319    -0.81800
O379        O  0.92301093  0.37570087  0.12216696    -0.80100
O380        O  0.75805866  0.30630542  0.10504354    -0.84300
O381        O  0.80542515  0.30731963  0.05252992    -0.79200
O382        O  0.84647376  0.31261440  0.17095888    -0.81000
O383        O  0.90136549  0.41960181  0.08356069    -0.83700
C384        C  0.80956311  0.27843262  0.05525292     0.97100
C385        C  0.75045852  0.28065144  0.12523541     1.04500
O386        O  0.84125101  0.34569432  0.11124230    -1.12700
O387        O  0.85293888  0.42184065  0.13418847    -0.75100
O388        O  0.79913834  0.38724729  0.10662069    -0.78600
O389        O  0.81906611  0.26957688  0.08076828    -0.79300
C390        C  0.82003099  0.41479679  0.12489332     0.96000
O391        O  0.84772481  0.38846685  0.05488742    -0.77300
O392        O  0.87378080  0.37644748  0.17252306    -0.82400
C393        C  0.92216438  0.34428780  0.11719523     0.98600
C394        C  0.86039103  0.34413241  0.18595409     1.04500
O395        O  0.89106112  0.31168895  0.11613638    -0.78100
C396        C  0.88289960  0.41395956  0.05828294     1.02800
Fe397      Fe  0.38485775  0.51166870  0.87906314     1.65800
Fe398      Fe  0.33480919  0.54135167  0.92060437     1.73200
Fe399      Fe  0.28614619  0.45777920  0.88085568     1.54400
O400        O  0.30069709  0.46833911  0.83461985    -0.81800
O401        O  0.28642255  0.50195406  0.94470223    -0.80100
O402        O  0.36403929  0.49131247  0.83471703    -0.84300
O403        O  0.37116679  0.45844735  0.89433853    -0.79200
O404        O  0.25787220  0.48967329  0.87627828    -0.81000
O405        O  0.36781948  0.53337793  0.95257477    -0.83700
C406        C  0.34116189  0.42545772  0.89184698     0.97100
C407        C  0.33215395  0.47910141  0.82045055     1.04500
O408        O  0.33517677  0.50342534  0.89328617    -1.12700
O409        O  0.38310562  0.58792315  0.90114180    -0.75100
O410        O  0.40364288  0.56630205  0.86269762    -0.78600
O411        O  0.30834430  0.42049234  0.88393977    -0.79300
C412        C  0.40407052  0.59355101  0.87753404     0.96000
O413        O  0.41226805  0.53361724  0.92172356    -0.77300
O414        O  0.30155525  0.55013935  0.88968333    -0.82400
C415        C  0.26567365  0.46561486  0.94640410     0.98600
C416        C  0.26920133  0.52559422  0.87798639     1.04500
O417        O  0.26687038  0.44331836  0.92624507    -0.78100
C418        C  0.40026068  0.53615537  0.94842238     1.02800
Fe419      Fe  0.11975495  0.50969544  0.12621522     1.65800
Fe420      Fe  0.19734023  0.54051093  0.07960121     1.73200
Fe421      Fe  0.16893573  0.46003501  0.12357363     1.54400
O422        O  0.16300542  0.46916545  0.16997520    -0.81800
O423        O  0.20024769  0.50021866  0.05284693    -0.80100
O424        O  0.12663714  0.49594937  0.17114342    -0.84300
O425        O  0.08010199  0.45344522  0.11602263    -0.79200
O426        O  0.22889540  0.49587399  0.12962513    -0.81000
O427        O  0.15334450  0.53326308  0.05125341    -0.83700
C428        C  0.07959698  0.42177078  0.11558825     0.97100
C429        C  0.14483692  0.48210473  0.18480284     1.04500
O430        O  0.16197938  0.50324249  0.10989571    -1.12700
O431        O  0.20033728  0.58728721  0.10164354    -0.75100
O432        O  0.15515594  0.56710287  0.13805792    -0.78600
O433        O  0.10969593  0.41930795  0.11935487    -0.79300
C434        C  0.18433625  0.59364171  0.12427607     0.96000
O435        O  0.10676537  0.52501767  0.08359736    -0.77300
O436        O  0.24445093  0.55067845  0.10517406    -0.82400
C437        C  0.19116574  0.46534692  0.05464530     0.98600
C438        C  0.25320042  0.53063842  0.12225480     1.04500
O439        O  0.17675736  0.44524384  0.07891444    -0.78100
C440        C  0.12148674  0.53106239  0.05667754     1.02800
Fe441      Fe  0.19848457  0.66789221  0.92497924     1.65800
Fe442      Fe  0.11959565  0.61976707  0.87861077     1.73200
Fe443      Fe  0.16968664  0.71982585  0.88173869     1.54400
O444        O  0.18068284  0.74385064  0.92628621    -0.81800
O445        O  0.12599359  0.63987857  0.83366330    -0.80100
O446        O  0.20196764  0.71090236  0.95250458    -0.84300
O447        O  0.24494828  0.70574103  0.89953665    -0.79200
O448        O  0.11118077  0.70112949  0.88784606    -0.81000
O449        O  0.15414825  0.59725232  0.86709280    -0.83700
C450        C  0.25331638  0.73392018  0.88174453     0.97100
C451        C  0.19438550  0.73757850  0.95072121     1.04500
O452        O  0.16254041  0.66928440  0.89497995    -1.12700
O453        O  0.10656914  0.59200169  0.92140646    -0.75100
O454        O  0.15506719  0.63022421  0.95317416    -0.78600
O455        O  0.22902342  0.74381961  0.87390252    -0.79300
C456        C  0.12223962  0.60088385  0.94814026     0.96000
O457        O  0.20129130  0.62451083  0.90224760    -0.77300
O458        O  0.08059315  0.63660068  0.88827359    -0.82400
C459        C  0.14236262  0.67245582  0.82038006     0.98600
C460        C  0.08078298  0.66807151  0.89037236     1.04500
O461        O  0.16025399  0.70387600  0.83545117    -0.78100
C462        C  0.18419370  0.60108383  0.88011253     1.02800
Fe463      Fe  0.49678797  0.88105364  0.87922202     1.65800
Fe464      Fe  0.47293075  0.80284361  0.92244652     1.73200
Fe465      Fe  0.55440367  0.84078978  0.87925989     1.54400
O466        O  0.54198340  0.84456127  0.83331560    -0.81800
O467        O  0.51540722  0.79994647  0.94675973    -0.80100
O468        O  0.51430802  0.88020413  0.83436458    -0.84300
O469        O  0.55079159  0.92379971  0.89170990    -0.79200
O470        O  0.52403223  0.78040157  0.87411747    -0.81000
O471        O  0.47883779  0.84390862  0.95345069    -0.83700
C472        C  0.58412787  0.92827274  0.88901130     0.97100
C473        C  0.52873614  0.86330565  0.81966413     1.04500
O474        O  0.50828300  0.84167905  0.89350406    -1.12700
O475        O  0.42394211  0.79848421  0.90280502    -0.75100
O476        O  0.44117286  0.84188041  0.86522812    -0.78600
O477        O  0.59000102  0.90091817  0.88225810    -0.79300
C478        C  0.41581513  0.81266956  0.87973352     0.96000
O479        O  0.47723046  0.88723558  0.92240054    -0.77300
O480        O  0.46523853  0.75992750  0.89322641    -0.82400
C481        C  0.55175480  0.81577576  0.94634304     0.98600
C482        C  0.48892265  0.75420434  0.87841133     1.04500
O483        O  0.57208338  0.83654494  0.92392975    -0.78100
C484        C  0.47522106  0.87294485  0.94915333     1.02800
Fe485      Fe  0.33735710  0.80648081  0.08501770     1.65800
Fe486      Fe  0.38950026  0.88718650  0.12713181     1.73200
Fe487      Fe  0.29048311  0.84083706  0.12655809     1.54400
O488        O  0.26914681  0.83529642  0.08144653    -0.81800
O489        O  0.37037572  0.88611670  0.17209853    -0.80100
O490        O  0.28943751  0.79816565  0.06105571    -0.84300
O491        O  0.30381997  0.76328410  0.11521697    -0.79200
O492        O  0.31264567  0.90042504  0.12381620    -0.81000
O493        O  0.40879470  0.85127064  0.14209005    -0.83700
C494        C  0.27226510  0.75549108  0.12778676     0.97100
C495        C  0.26824030  0.81285486  0.06032119     1.04500
O496        O  0.33904777  0.84492197  0.11311794    -1.12700
O497        O  0.41553424  0.89328227  0.08400387    -0.75100
O498        O  0.37046878  0.84794816  0.05329233    -0.78600
O499        O  0.26196374  0.78044202  0.13091136    -0.79300
C500        C  0.40322764  0.87787284  0.05741151     0.96000
O501        O  0.38491320  0.80747207  0.10430479    -0.77300
O502        O  0.37538693  0.92695685  0.11325427    -0.82400
C503        C  0.33878059  0.86651511  0.18664137     0.98600
C504        C  0.34522016  0.92903482  0.11612021     1.04500
O505        O  0.30681838  0.84548795  0.17267325    -0.78100
C506        C  0.40700175  0.82312414  0.12754158     1.02800
Fe507      Fe  0.47260425  0.67875645  0.08147101     1.65800
Fe508      Fe  0.49846348  0.62681907  0.12641044     1.73200
Fe509      Fe  0.55470926  0.72656989  0.12512966     1.54400
O510        O  0.57029115  0.74997199  0.08080615    -0.81800
O511        O  0.51409509  0.64629343  0.17147184    -0.80100
O512        O  0.51438434  0.72248479  0.05524890    -0.84300
O513        O  0.46614847  0.71635949  0.10859206    -0.79200
O514        O  0.59177396  0.70499455  0.12006267    -0.81000
O515        O  0.44157139  0.60697246  0.13860077    -0.83700
C516        C  0.48838131  0.74484981  0.12562623     0.97100
C517        C  0.55015753  0.74654753  0.05695123     1.04500
O518        O  0.50878591  0.67748148  0.11110409    -1.12700
O519        O  0.48069839  0.59961908  0.08341137    -0.75100
O520        O  0.47623371  0.64110260  0.05198967    -0.78600
O521        O  0.52285858  0.75383725  0.13219240    -0.79300
C522        C  0.47552968  0.60982018  0.05677399     0.96000
O523        O  0.42449389  0.63539151  0.10295545    -0.77300
O524        O  0.55374482  0.64093419  0.11577395    -0.82400
C525        C  0.53065735  0.67854081  0.18546460     0.98600
C526        C  0.58667329  0.67149994  0.11560307     1.04500
O527        O  0.54541711  0.71034863  0.17111993    -0.78100
C528        C  0.41633436  0.61179572  0.12508147     1.02800
C529        C  0.47092455  0.82760662  0.13183556    -0.21500
C530        C  0.43099277  0.80710331  0.13718790    -0.09500
C531        C  0.41282627  0.76811793  0.14534603     0.29400
C532        C  0.43341968  0.74902374  0.14540634    -0.21500
C533        C  0.47237665  0.76831871  0.13675374    -0.09500
C534        C  0.49167702  0.80828888  0.13160721     0.29400
F535        F  0.52916097  0.82755502  0.12271599    -0.20000
H536        H  0.48522400  0.85760674  0.12503083     0.17700
H537        H  0.41802839  0.71822284  0.14948329     0.17700
F538        F  0.37434670  0.74769127  0.15053028    -0.20000
C539        C  0.57083383  0.82588931  0.00177514    -0.21500
C540        C  0.56931596  0.80803689  0.97336031    -0.09500
C541        C  0.57128959  0.77425933  0.97350610     0.29400
C542        C  0.56992848  0.75621024  0.00168236    -0.21500
C543        C  0.56741569  0.77206182  0.02999042    -0.09500
C544        C  0.57012671  0.80817699  0.02997481     0.29400
F545        F  0.56678003  0.82367437  0.05695401    -0.20000
H546        H  0.56833955  0.85138842  0.00212699     0.17700
H547        H  0.56711026  0.72802643  0.00124057     0.17700
F548        F  0.56939363  0.75612617  0.94640132    -0.20000
C549        C  0.46353159  0.89138526  0.03257157    -0.21500
C550        C  0.42907489  0.89183647  0.03058774    -0.09500
C551        C  0.41532560  0.89512523  0.00133623     0.29400
C552        C  0.43382383  0.89398965  0.97428936    -0.21500
C553        C  0.46523256  0.88816103  0.97629903    -0.09500
C554        C  0.48116842  0.88879934  0.00560251     0.29400
F555        F  0.51154878  0.88322505  0.00821772    -0.20000
H556        H  0.47420968  0.88837599  0.05493174     0.17700
H557        H  0.42106827  0.89338016  0.95191055     0.17700
F558        F  0.38206065  0.89575148  0.99890238    -0.20000
C559        C  0.18972213  0.74475068  0.00737476    -0.21500
C560        C  0.20382320  0.76239928  0.97847478    -0.09500
C561        C  0.23454614  0.80081965  0.97772582     0.29400
C562        C  0.25300562  0.81982215  0.00547424    -0.21500
C563        C  0.24080291  0.80082065  0.03415011    -0.09500
C564        C  0.20799149  0.76372906  0.03498088     0.29400
F565        F  0.19663228  0.74404819  0.06217515    -0.20000
H566        H  0.16673365  0.71486941  0.00840256     0.17700
H567        H  0.27910347  0.84783264  0.00429461     0.17700
F568        F  0.24990953  0.81803803  0.95014127    -0.20000
C569        C  0.31307665  0.73528271  0.86674485    -0.21500
C570        C  0.29380602  0.75572935  0.87119623    -0.09500
C571        C  0.31544784  0.79625415  0.87185482     0.29400
C572        C  0.35594146  0.81547198  0.87148833    -0.21500
C573        C  0.37493253  0.79440145  0.87062464    -0.09500
C574        C  0.35320893  0.75431804  0.86669542     0.29400
F575        F  0.37081754  0.73330609  0.86500103    -0.20000
H576        H  0.29700398  0.70407837  0.86573597     0.17700
H577        H  0.37236777  0.84643895  0.87466285     0.17700
F578        F  0.29785568  0.81693790  0.87623984    -0.20000
C579        C  0.09921952  0.52064896  0.00202670    -0.21500
C580        C  0.10351367  0.53945247  0.03051800    -0.09500
C581        C  0.10262372  0.57376259  0.03112399     0.29400
C582        C  0.10305392  0.59166962  0.00324214    -0.21500
C583        C  0.10390159  0.57528459  0.97468542    -0.09500
C584        C  0.09906171  0.53830016  0.97413108     0.29400
F585        F  0.10052543  0.52217869  0.94684630    -0.20000
H586        H  0.10036769  0.49440028  0.00123097     0.17700
H587        H  0.10721534  0.62041366  0.00398116     0.17700
F588        F  0.10775927  0.59302918  0.05826818    -0.20000
C589        C  0.23958928  0.65248004  0.14589534    -0.21500
C590        C  0.20172700  0.63386401  0.13457250    -0.09500
C591        C  0.18468585  0.65578817  0.12711176     0.29400
C592        C  0.20675216  0.69618995  0.12839107    -0.21500
C593        C  0.24602050  0.71487065  0.13663502    -0.09500
C594        C  0.26158953  0.69255142  0.14700146     0.29400
F595        F  0.29900254  0.70951649  0.15602300    -0.20000
H596        H  0.25300272  0.63590988  0.15191057     0.17700
H597        H  0.19417739  0.71275434  0.12012703     0.17700
F598        F  0.14818257  0.63840447  0.11562388    -0.20000
C599        C  0.31386089  0.52902447  0.13320276    -0.21500
C600        C  0.29407492  0.54937331  0.13250656    -0.09500
C601        C  0.31531358  0.58966112  0.13647751     0.29400
C602        C  0.35546013  0.60944426  0.13712831    -0.21500
C603        C  0.37543208  0.58962140  0.13438659    -0.09500
C604        C  0.35445735  0.54905761  0.13427598     0.29400
F605        F  0.37306852  0.52908019  0.13199296    -0.20000
H606        H  0.29818411  0.49801075  0.13033399     0.17700
H607        H  0.37109111  0.64066793  0.13767626     0.17700
F608        F  0.29732508  0.61031677  0.13748098    -0.20000
C609        C  0.18611650  0.45248964  0.99815901    -0.21500
C610        C  0.20025125  0.44957480  0.02728240    -0.09500
C611        C  0.23154146  0.44339140  0.02861635     0.29400
C612        C  0.25055453  0.44383294  0.00124806    -0.21500
C613        C  0.23841476  0.45025850  0.97240858    -0.09500
C614        C  0.20504552  0.45291222  0.97090450     0.29400
F615        F  0.19358045  0.46057601  0.94345581    -0.20000
H616        H  0.16268676  0.45830201  0.99673890     0.17700
H617        H  0.27696560  0.44299738  0.00288889     0.17700
F618        F  0.24694816  0.44239822  0.05649278    -0.20000
C619        C  0.43037522  0.54775885  0.03183540    -0.21500
C620        C  0.46480945  0.58343399  0.03028589    -0.09500
C621        C  0.48222612  0.59767560  0.00133167     0.29400
C622        C  0.46292626  0.57884950  0.97402354    -0.21500
C623        C  0.42584864  0.54620908  0.97554033    -0.09500
C624        C  0.41072992  0.52928569  0.00451775     0.29400
F625        F  0.37538516  0.49693283  0.00639845    -0.20000
H626        H  0.41653900  0.53651063  0.05400270     0.17700
H627        H  0.47498458  0.59219708  0.95185542     0.17700
F628        F  0.51590000  0.63187210  0.99945409    -0.20000
C629        C  0.46878613  0.65288850  0.87803629    -0.21500
C630        C  0.43015942  0.63356580  0.86805074    -0.09500
C631        C  0.41482828  0.65463168  0.85484474     0.29400
C632        C  0.43661905  0.69476509  0.85451194    -0.21500
C633        C  0.47386365  0.71443790  0.86753393    -0.09500
C634        C  0.49074733  0.69325806  0.87768362     0.29400
F635        F  0.52646624  0.71142328  0.89074797    -0.20000
H636        H  0.48081397  0.63688795  0.88861884     0.17700
H637        H  0.42310899  0.71064051  0.84662513     0.17700
F638        F  0.37769934  0.63651686  0.84477050    -0.20000
C639        C  0.20411338  0.51961889  0.87578627    -0.21500
C640        C  0.24360062  0.54022253  0.86845345    -0.09500
C641        C  0.26015282  0.57859457  0.85828166     0.29400
C642        C  0.23916155  0.59735152  0.85940257    -0.21500
C643        C  0.20098763  0.57799322  0.86981475    -0.09500
C644        C  0.18282477  0.53841637  0.87643734     0.29400
F645        F  0.14586984  0.51908763  0.88664594    -0.20000
H646        H  0.19069641  0.49010989  0.88373073     0.17700
H647        H  0.25354331  0.62781730  0.85408607     0.17700
F648        F  0.29766812  0.59892852  0.84957403    -0.20000
C649        C  0.98059723  0.34623213  0.13827833    -0.21500
C650        C  0.95992024  0.34756806  0.11239075    -0.09500
C651        C  0.97988622  0.36440733  0.08477955     0.29400
C652        C  0.02023169  0.38415216  0.08443131    -0.21500
C653        C  0.04116084  0.38706936  0.11151785    -0.09500
C654        C  0.02107967  0.36563618  0.13780032     0.29400
F655        F  0.04053867  0.36811524  0.16437812    -0.20000
H656        H  0.96577796  0.33394979  0.15991959     0.17700
H657        H  0.03514881  0.40083335  0.06408393     0.20100
F658        F  0.96064349  0.36610950  0.05940721    -0.20000
C659        C  0.38666755  0.02798846  0.08391615    -0.21500
C660        C  0.38730138  0.04827149  0.11064523    -0.09500
C661        C  0.36518304  0.02761351  0.13647255     0.29400
C662        C  0.34652402  0.98723726  0.13676587    -0.21500
C663        C  0.34998912  0.96736432  0.11135943    -0.09500
C664        C  0.36816643  0.98782161  0.08422325     0.29400
F665        F  0.37161198  0.96923137  0.05923653    -0.20000
H666        H  0.40391109  0.04343376  0.06394459     0.17700
H667        H  0.33321553  0.97199389  0.15805185     0.17700
F668        F  0.36626027  0.04651519  0.16291860    -0.20000
C669        C  0.68896116  0.21881321  0.13510615    -0.21500
C670        C  0.71015250  0.25924422  0.13595145    -0.09500
C671        C  0.69049802  0.27942558  0.14007610     0.29400
C672        C  0.65034987  0.25981083  0.13991189    -0.21500
C673        C  0.62910469  0.21979236  0.13592303    -0.09500
C674        C  0.64847906  0.19907107  0.13499714     0.29400
F675        F  0.62847583  0.16038477  0.13032618    -0.20000
H676        H  0.70352398  0.20282582  0.13147478     0.17700
H677        H  0.63581806  0.27616829  0.14067776     0.17700
F678        F  0.71014395  0.31850391  0.14145590    -0.20000
C679        C  0.98206880  0.64882834  0.87131481    -0.21500
C680        C  0.96193070  0.62582272  0.89690600    -0.09500
C681        C  0.98277926  0.62656888  0.92344385     0.29400
C682        C  0.02299567  0.64555972  0.92270364    -0.21500
C683        C  0.04299457  0.66438939  0.89566093    -0.09500
C684        C  0.02253416  0.66809446  0.87063395     0.29400
F685        F  0.04112252  0.68563993  0.84400177    -0.20000
H686        H  0.96651339  0.64796217  0.85040812     0.17700
H687        H  0.03824709  0.64200430  0.94204655     0.17700
F688        F  0.96403905  0.60444113  0.94843820    -0.20000
C689        C  0.90172928  0.44162226  0.97550251    -0.21500
C690        C  0.89793055  0.47426243  0.97647168    -0.09500
C691        C  0.90087339  0.49229464  0.00513627     0.29400
C692        C  0.90293271  0.47523325  0.03270415    -0.21500
C693        C  0.90093644  0.43958977  0.03187390    -0.09500
C694        C  0.90269995  0.42395709  0.00317194     0.29400
F695        F  0.90037756  0.38921346  0.00197127    -0.20000
H696        H  0.89900282  0.42711879  0.95359015     0.17700
H697        H  0.90082303  0.48719314  0.05468601     0.17700
F698        F  0.89713006  0.52381255  0.00661221    -0.20000
C699        C  0.61694692  0.98772589  0.92016140    -0.21500
C700        C  0.61652097  0.96787823  0.89326086    -0.09500
C701        C  0.63937368  0.98880727  0.86778556     0.29400
C702        C  0.65898098  0.02922878  0.86819798    -0.21500
C703        C  0.65545194  0.04874795  0.89383628    -0.09500
C704        C  0.63623140  0.02784763  0.92050100     0.29400
F705        F  0.63234697  0.04608515  0.94553711    -0.20000
H706        H  0.59910810  0.97205512  0.93981203     0.17700
H707        H  0.67301276  0.04489134  0.84723314     0.17700
F708        F  0.63842305  0.97037709  0.84108892    -0.20000
C709        C  0.59395146  0.12306734  0.00532034    -0.21500
C710        C  0.57827185  0.12342824  0.97618819    -0.09500
C711        C  0.54169899  0.11961089  0.97455540     0.29400
C712        C  0.52400380  0.12157189  0.00171207    -0.21500
C713        C  0.54182177  0.12568762  0.03068761    -0.09500
C714        C  0.57545626  0.12347987  0.03258003     0.29400
F715        F  0.59302303  0.12687368  0.06039699    -0.20000
H716        H  0.62212419  0.12584832  0.00690440     0.17700
H717        H  0.49793958  0.12303024  0.99994990     0.17700
F718        F  0.52575376  0.11954999  0.94666172    -0.20000
C719        C  0.75398028  0.19581769  0.99985991    -0.21500
C720        C  0.76483921  0.21567544  0.97146627    -0.09500
C721        C  0.79665121  0.25334489  0.97079515     0.29400
C722        C  0.81439464  0.27240408  0.99844903    -0.21500
C723        C  0.80099153  0.25409264  0.02723181    -0.09500
C724        C  0.77228472  0.21478541  0.02768892     0.29400
F725        F  0.75862007  0.19627246  0.05513406    -0.20000
H726        H  0.72899712  0.16700027  0.00085502     0.17700
H727        H  0.83639122  0.30267167  0.99756887     0.17700
F728        F  0.80751065  0.27323948  0.94369297    -0.20000
C729        C  0.79699685  0.31896117  0.87829430    -0.21500
C730        C  0.75836252  0.29999596  0.86833906    -0.09500
C731        C  0.74316931  0.32174495  0.85592065     0.29400
C732        C  0.76459986  0.36187167  0.85732624    -0.21500
C733        C  0.80149534  0.38066412  0.87069962    -0.09500
C734        C  0.81847390  0.35923580  0.87971079     0.29400
F735        F  0.85408104  0.37695724  0.89299579    -0.20000
H736        H  0.80924847  0.30273012  0.88785581     0.17700
H737        H  0.75145275  0.37818113  0.84995095     0.17700
F738        F  0.70659168  0.30416658  0.84458486    -0.20000
C739        C  0.35948959  0.34535895  0.87350500    -0.21500
C740        C  0.38639651  0.35170620  0.89707992    -0.09500
C741        C  0.38951709  0.37470871  0.92275081     0.29400
C742        C  0.36987309  0.39486734  0.92285239    -0.21500
C743        C  0.34686355  0.39256689  0.89737271    -0.09500
C744        C  0.33977415  0.36577334  0.87357799     0.29400
F745        F  0.31819541  0.36335623  0.84841621    -0.20000
H746        H  0.35708794  0.32817588  0.85334016     0.17700
H747        H  0.37580568  0.41540734  0.94137801     0.17700
F748        F  0.41506688  0.38120117  0.94602256    -0.20000
C749        C  0.44227871  0.26513281  0.00426078    -0.21500
C750        C  0.43652012  0.24550319  0.97601828    -0.09500
C751        C  0.42667896  0.20670252  0.97641610     0.29400
C752        C  0.42755761  0.18955380  0.00453643    -0.21500
C753        C  0.43757484  0.21082302  0.03232444    -0.09500
C754        C  0.44272096  0.24794129  0.03226948     0.29400
F755        F  0.45332637  0.26939852  0.05872523    -0.20000
H756        H  0.45060196  0.29528265  0.00430045     0.17700
H757        H  0.42430502  0.16118557  0.00414909     0.17700
F758        F  0.42143656  0.18725877  0.94936372    -0.20000
C759        C  0.68934318  0.48558917  0.87312981    -0.21500
C760        C  0.70947029  0.46564427  0.87195834    -0.09500
C761        C  0.68862121  0.42559943  0.86652580     0.29400
C762        C  0.64843712  0.40545094  0.86589089    -0.21500
C763        C  0.62817658  0.42477085  0.87009554    -0.09500
C764        C  0.64878817  0.46523877  0.87222140     0.29400
F765        F  0.62983090  0.48456392  0.87680955    -0.20000
H766        H  0.70472915  0.51633024  0.87751811     0.17700
H767        H  0.63302605  0.37429138  0.86419192     0.17700
F768        F  0.70706217  0.40545127  0.86421506    -0.20000
C769        C  0.56810979  0.26316106  0.85775016    -0.21500
C770        C  0.53004716  0.24464953  0.86879968    -0.09500
C771        C  0.51204213  0.20560720  0.87725670     0.29400
C772        C  0.53326522  0.18677784  0.87754400    -0.21500
C773        C  0.57244244  0.20674492  0.86940845    -0.09500
C774        C  0.58921613  0.24449460  0.85820785     0.29400
F775        F  0.62699186  0.26436247  0.85020586    -0.20000
H776        H  0.58261886  0.29331877  0.85132719     0.17700
H777        H  0.52012679  0.15780248  0.88670761     0.17700
F778        F  0.47572202  0.18724131  0.88883447    -0.20000
C779        C  0.64087678  0.62750928  0.08378772    -0.21500
C780        C  0.66034265  0.62659624  0.11062997    -0.09500
C781        C  0.66365140  0.64987689  0.13617915     0.29400
C782        C  0.64341152  0.66969550  0.13618403    -0.21500
C783        C  0.61983672  0.66629239  0.11076785    -0.09500
C784        C  0.62072435  0.64717206  0.08381523     0.29400
F785        F  0.59841592  0.64374878  0.05885418    -0.20000
H786        H  0.63782061  0.60955892  0.06396749     0.17700
H787        H  0.64259314  0.68387201  0.15731225     0.17700
F788        F  0.68165311  0.64898128  0.16264963    -0.20000
C789        C  0.77360839  0.57379086  0.97710588    -0.21500
C790        C  0.80313229  0.56505953  0.97859161    -0.09500
C791        C  0.81715554  0.56210588  0.00778957     0.29400
C792        C  0.79962503  0.56442099  0.03495741    -0.21500
C793        C  0.76735974  0.56883645  0.03339168    -0.09500
C794        C  0.75542056  0.57521625  0.00438970     0.29400
F795        F  0.72340800  0.57813173  0.00221846    -0.20000
H796        H  0.76181628  0.57520797  0.95477740     0.17700
H797        H  0.80849799  0.55838672  0.05705548     0.17700
F798        F  0.84504109  0.55282433  0.00987963    -0.20000
C799        C  0.54316447  0.43806312  0.03014729    -0.21500
C800        C  0.57984472  0.47118600  0.02811773    -0.09500
C801        C  0.59492876  0.48678214  0.99878328     0.29400
C802        C  0.57533210  0.46702956  0.97182103    -0.21500
C803        C  0.54123885  0.43113102  0.97405875    -0.09500
C804        C  0.52418208  0.41769714  0.00325197     0.29400
F805        F  0.49112783  0.38305731  0.00590425    -0.20000
H806        H  0.53132917  0.42552321  0.05257642     0.17700
H807        H  0.58895237  0.47758941  0.94948319     0.17700
F808        F  0.63022619  0.51906743  0.99629037    -0.20000
C809        C  0.57227645  0.32223681  0.14583488    -0.21500
C810        C  0.53329628  0.30199859  0.13673904    -0.09500
C811        C  0.51451617  0.32272846  0.13087240     0.29400
C812        C  0.53594720  0.36324132  0.13036010    -0.21500
C813        C  0.57596800  0.38301274  0.13581094    -0.09500
C814        C  0.59349885  0.36230393  0.14512004     0.29400
F815        F  0.63195418  0.38076864  0.15096101    -0.20000
H816        H  0.58725861  0.30687231  0.15072850     0.17700
H817        H  0.52204683  0.37890608  0.12302350     0.17700
F818        F  0.47681195  0.30408865  0.12224772    -0.20000
C819        C  0.76777887  0.42190496  0.14770156    -0.21500
C820        C  0.80467512  0.43945166  0.13465116    -0.09500
C821        C  0.82228056  0.47810772  0.12506971     0.29400
C822        C  0.80150189  0.49743893  0.12579243    -0.21500
C823        C  0.76301477  0.47828316  0.13594540    -0.09500
C824        C  0.74719172  0.44111934  0.14853414     0.29400
F825        F  0.71058716  0.42224429  0.15946995    -0.20000
H826        H  0.75386513  0.39226545  0.15536778     0.17700
H827        H  0.81415128  0.52589420  0.11566471     0.17700
F828        F  0.85771556  0.49560538  0.11183643    -0.20000
C829        C  0.63308833  0.13223911  0.73601980    -0.21500
C830        C  0.66808629  0.15200437  0.71974869    -0.09500
C831        C  0.70285740  0.17088965  0.73683816     0.29400
C832        C  0.70233424  0.17000913  0.76929179    -0.21500
C833        C  0.66732797  0.15032141  0.78554448    -0.09500
C834        C  0.63256410  0.13131571  0.76845299     0.29400
F835        F  0.59789361  0.11218806  0.78289111    -0.20000
H836        H  0.60580196  0.11737958  0.72364356     0.17700
H837        H  0.72958855  0.18498466  0.78170408     0.17700
F838        F  0.73747142  0.19053886  0.72238566    -0.20000
C839        C  0.87851452  0.37848324  0.23721136    -0.21500
C840        C  0.86118759  0.34355035  0.22054306    -0.09500
C841        C  0.84473451  0.30877197  0.23736171     0.29400
C842        C  0.84522221  0.30922759  0.26991561    -0.21500
C843        C  0.86222351  0.34419469  0.28652974    -0.09500
C844        C  0.87913565  0.37895069  0.26968067     0.29400
F845        F  0.89567859  0.41358434  0.28439978    -0.20000
H846        H  0.89155123  0.40578324  0.22512218     0.17700
H847        H  0.83210314  0.28200778  0.28212782     0.17700
F848        F  0.82779370  0.27419816  0.22254017    -0.20000
C849        C  0.79778108  0.24131532  0.52967426    -0.21500
C850        C  0.75967364  0.21008840  0.52835456    -0.09500
C851        C  0.74227841  0.19611898  0.49913215     0.29400
C852        C  0.76113184  0.21552117  0.47199127    -0.21500
C853        C  0.79754801  0.24913204  0.47352274    -0.09500
C854        C  0.81656531  0.26099652  0.50241663     0.29400
F855        F  0.85137094  0.29397158  0.50462570    -0.20000
H856        H  0.81132369  0.25311634  0.55199405     0.17700
H857        H  0.74571067  0.20640988  0.45001538     0.17700
F858        F  0.70535548  0.16623973  0.49716511    -0.20000
C859        C  0.83522321  0.54215864  0.77099608    -0.21500
C860        C  0.86072672  0.53425313  0.78726097    -0.09500
C861        C  0.88641827  0.52744276  0.77015874     0.29400
C862        C  0.88622062  0.52832043  0.73770259    -0.21500
C863        C  0.86058820  0.53601484  0.72142719    -0.09500
C864        C  0.83497783  0.54295615  0.73850472     0.29400
F865        F  0.80896694  0.54956666  0.72393738    -0.20000
H866        H  0.81489177  0.54721016  0.78343705     0.17700
H867        H  0.90637059  0.52298631  0.72527662     0.17700
F868        F  0.91205677  0.52022883  0.78465291    -0.20000
C869        C  0.89292348  0.44039333  0.53314783    -0.21500
C870        C  0.88986155  0.47341495  0.53154042    -0.09500
C871        C  0.89259030  0.49074441  0.50261476     0.29400
C872        C  0.89362527  0.47255338  0.47534519    -0.21500
C873        C  0.89090992  0.43655689  0.47685659    -0.09500
C874        C  0.89297208  0.42169010  0.50586237     0.29400
F875        F  0.89101312  0.38715501  0.50776526    -0.20000
H876        H  0.89070141  0.42665476  0.55529905     0.17700
H877        H  0.89189258  0.48427669  0.45314602     0.17700
F878        F  0.89029359  0.52309158  0.50066099    -0.20000
C879        C  0.73650004  0.32122479  0.64102103    -0.21500
C880        C  0.75628484  0.30157321  0.63565511    -0.09500
C881        C  0.79682005  0.32263399  0.63426133     0.29400
C882        C  0.81653489  0.36311683  0.63455813    -0.21500
C883        C  0.79581665  0.38244278  0.63625857    -0.09500
C884        C  0.75594019  0.36121611  0.64112409     0.29400
F885        F  0.73535517  0.37917659  0.64342853    -0.20000
H886        H  0.70535522  0.30552960  0.64252601     0.17700
H887        H  0.84736961  0.37918042  0.63065899     0.17700
F888        F  0.81680540  0.30443456  0.62920089    -0.20000
C889        C  0.46538768  0.17397119  0.27005309    -0.21500
C890        C  0.47595014  0.15027988  0.28594197    -0.09500
C891        C  0.48527656  0.12663576  0.26837402     0.29400
C892        C  0.48449238  0.12727867  0.23590943    -0.21500
C893        C  0.47444606  0.15135400  0.22000621    -0.09500
C894        C  0.46463905  0.17463246  0.23754028     0.29400
F895        F  0.45499425  0.19865716  0.22343947    -0.20000
H896        H  0.45812650  0.19254130  0.28281495     0.17700
H897        H  0.49194240  0.10881297  0.22319861     0.17700
F898        F  0.49500389  0.10261767  0.28238821    -0.20000
C899        C  0.51695963  0.10479209  0.50253494    -0.21500
C900        C  0.53606094  0.11047332  0.47410562    -0.09500
C901        C  0.57149592  0.11181890  0.47334068     0.29400
C902        C  0.59028538  0.11355070  0.50113212    -0.21500
C903        C  0.57338252  0.11301530  0.52969354    -0.09500
C904        C  0.53538664  0.10557451  0.53034991     0.29400
F905        F  0.51862861  0.10525029  0.55774704    -0.20000
H906        H  0.48979975  0.10414396  0.50339919     0.17700
H907        H  0.61967891  0.11952956  0.50037013     0.17700
F908        F  0.59078834  0.11808861  0.44615529    -0.20000
C909        C  0.65154292  0.19343614  0.38098406    -0.21500
C910        C  0.63001894  0.21066824  0.37300209    -0.09500
C911        C  0.64891324  0.24845814  0.36172505     0.29400
C912        C  0.68905815  0.26996124  0.36100821    -0.21500
C913        C  0.71093981  0.25408866  0.37167221    -0.09500
C914        C  0.69193991  0.21500393  0.38026233     0.29400
F915        F  0.71219970  0.19901783  0.39128159    -0.20000
H916        H  0.63724621  0.16442791  0.39018283     0.17700
H917        H  0.70309764  0.29994364  0.35420619     0.17700
F918        F  0.62850761  0.26541352  0.35358229    -0.20000
C919        C  0.48311151  0.37065004  0.76943726    -0.21500
C920        C  0.47010840  0.33553335  0.78502178    -0.09500
C921        C  0.45710367  0.30176389  0.76720104     0.29400
C922        C  0.45802406  0.30354859  0.73471229    -0.21500
C923        C  0.47187083  0.33886113  0.71916439    -0.09500
C924        C  0.48411922  0.37245842  0.73702851     0.29400
F925        F  0.49768252  0.40734114  0.72340647    -0.20000
H926        H  0.49311258  0.39715996  0.78235331     0.17700
H927        H  0.44833247  0.27713600  0.72173299     0.17700
F928        F  0.44424756  0.26706932  0.78096502    -0.20000
C929        C  0.44943887  0.21359569  0.53482311    -0.21500
C930        C  0.44346892  0.24481785  0.53242827    -0.09500
C931        C  0.43257387  0.25275915  0.50356351     0.29400
C932        C  0.43192413  0.23230523  0.47687500    -0.21500
C933        C  0.44259804  0.20420705  0.47882366    -0.09500
C934        C  0.44897202  0.19336386  0.50830557     0.29400
F935        F  0.45903564  0.16609477  0.51097865    -0.20000
H936        H  0.45820653  0.20729134  0.55685518     0.17700
H937        H  0.42743889  0.24144730  0.45433880     0.17700
F938        F  0.42675139  0.28288500  0.50063125    -0.20000
C939        C  0.65000565  0.47434577  0.63428030    -0.21500
C940        C  0.62997049  0.43418226  0.63830594    -0.09500
C941        C  0.65049503  0.41586164  0.64583739     0.29400
C942        C  0.69061671  0.43675356  0.64643679    -0.21500
C943        C  0.71100188  0.47601000  0.63863521    -0.09500
C944        C  0.69052900  0.49534493  0.63442148     0.29400
F945        F  0.70933078  0.53326602  0.62684988    -0.20000
H946        H  0.63444018  0.48878249  0.62817124     0.17700
H947        H  0.70583228  0.42144917  0.65017626     0.17700
F948        F  0.63179532  0.37711332  0.64982319    -0.20000
C949        C  0.57428855  0.27024183  0.64396206    -0.21500
C950        C  0.53535336  0.25222342  0.63484206    -0.09500
C951        C  0.51542950  0.21241935  0.62833058     0.29400
C952        C  0.53551638  0.19234096  0.62771897    -0.21500
C953        C  0.57548872  0.21183066  0.63346514    -0.09500
C954        C  0.59426109  0.25049610  0.64293645     0.29400
F955        F  0.63268698  0.27000344  0.64900905    -0.20000
H956        H  0.59020212  0.30070651  0.64944174     0.17700
H957        H  0.52061429  0.16255715  0.62012885     0.17700
F958        F  0.47785887  0.19398196  0.61933225    -0.20000
C959        C  0.63890526  0.52781286  0.26903089    -0.21500
C960        C  0.67227680  0.53480505  0.28522085    -0.09500
C961        C  0.70484436  0.54168418  0.26806602     0.29400
C962        C  0.70400084  0.54202706  0.23561847    -0.21500
C963        C  0.67074695  0.53529231  0.21937578    -0.09500
C964        C  0.63798068  0.52794654  0.23652725     0.29400
F965        F  0.60504567  0.52110134  0.22208170    -0.20000
H966        H  0.61337065  0.52238942  0.28155779     0.17700
H967        H  0.72949605  0.54715922  0.22318878     0.17700
F968        F  0.73732793  0.54722006  0.28248572    -0.20000
C969        C  0.75278047  0.57559636  0.50288446    -0.21500
C970        C  0.76887747  0.57366773  0.47455848    -0.09500
C971        C  0.80417711  0.57455979  0.47487081     0.29400
C972        C  0.82090839  0.57338595  0.50315333    -0.21500
C973        C  0.80287141  0.57166076  0.53141966    -0.09500
C974        C  0.76970388  0.57476871  0.53119215     0.29400
F975        F  0.75096641  0.57190372  0.55809959    -0.20000
H976        H  0.72493715  0.57364338  0.50309895     0.17700
H977        H  0.84591358  0.56999381  0.50287318     0.17700
F978        F  0.81961454  0.57124053  0.44790080    -0.20000
C979        C  0.60100086  0.49027461  0.50574932    -0.21500
C980        C  0.58355306  0.47508993  0.47678529    -0.09500
C981        C  0.54520805  0.44436155  0.47567622     0.29400
C982        C  0.52682904  0.42562810  0.50312057    -0.21500
C983        C  0.54607917  0.43811612  0.53179723    -0.09500
C984        C  0.58228396  0.47210425  0.53321435     0.29400
F985        F  0.60177495  0.48452375  0.56060413    -0.20000
H986        H  0.63059150  0.51397006  0.50696768     0.17700
H987        H  0.49892382  0.39937215  0.50175064     0.17700
F988        F  0.52757710  0.42911346  0.44802437    -0.20000
C989        C  0.54275315  0.36060146  0.37506081    -0.21500
C990        C  0.58314122  0.38094983  0.37237678    -0.09500
C991        C  0.60215513  0.36028587  0.36819801     0.29400
C992        C  0.58166521  0.32021088  0.36938529    -0.21500
C993        C  0.54181663  0.29969781  0.37490899    -0.09500
C994        C  0.52206556  0.32008971  0.37642590     0.29400
F995        F  0.48372615  0.30131853  0.38252648    -0.20000
H996        H  0.52767250  0.37610546  0.37887256     0.17700
H997        H  0.59751980  0.30520301  0.36807277     0.17700
F998        F  0.64109549  0.37905926  0.36535636    -0.20000
C999        C  0.74596536  0.44016305  0.35958044    -0.21500
C1000       C  0.76473445  0.47912229  0.36843254    -0.09500
C1001       C  0.80470444  0.49876851  0.37429858     0.29400
C1002       C  0.82430473  0.47827828  0.37483350    -0.21500
C1003       C  0.80413066  0.43831916  0.36943476    -0.09500
C1004       C  0.76528377  0.41979614  0.36041140     0.29400
F1005       F  0.74517416  0.38121604  0.35511994    -0.20000
H1006       H  0.71526664  0.42456670  0.35472849     0.17700
H1007       H  0.85425049  0.49284647  0.38216047     0.17700
F1008       F  0.82369119  0.53638913  0.38300444    -0.20000
C1009       C  0.55352544  0.71284721  0.26941674    -0.21500
C1010       C  0.53342585  0.67794157  0.28574491    -0.09500
C1011       C  0.51318541  0.64328579  0.26874025     0.29400
C1012       C  0.51276584  0.64384464  0.23629911    -0.21500
C1013       C  0.53244534  0.67877491  0.21993833    -0.09500
C1014       C  0.55320121  0.71340206  0.23694007     0.29400
F1015       F  0.57321710  0.74791210  0.22236532    -0.20000
H1016       H  0.56953585  0.73997098  0.28180868     0.17700
H1017       H  0.49647040  0.61669260  0.22399355     0.17700
F1018       F  0.49286286  0.60879507  0.28330030    -0.20000
C1019       C  0.62129119  0.64568236  0.42158815    -0.21500
C1020       C  0.62081109  0.66591707  0.39523662    -0.09500
C1021       C  0.64431934  0.66964869  0.36980263     0.29400
C1022       C  0.66414521  0.64937184  0.36946227    -0.21500
C1023       C  0.66046227  0.62523185  0.39437757    -0.09500
C1024       C  0.64079017  0.62538141  0.42117788     0.29400
F1025       F  0.63666270  0.60223028  0.44555689    -0.20000
H1026       H  0.60311867  0.64219233  0.44127253     0.17700
H1027       H  0.67861703  0.64906980  0.34840287     0.17700
F1028       F  0.64376568  0.68825549  0.34369408    -0.20000
C1029       C  0.30482538  0.84519365  0.23781973    -0.21500
C1030       C  0.33918053  0.86783576  0.22126163    -0.09500
C1031       C  0.37355155  0.89079258  0.23823602     0.29400
C1032       C  0.37333095  0.89053245  0.27075193    -0.21500
C1033       C  0.33904660  0.86753010  0.28729090    -0.09500
C1034       C  0.30460500  0.84496343  0.27033362     0.29400
F1035       F  0.27062915  0.82216867  0.28498165    -0.20000
H1036       H  0.27787384  0.82718146  0.22559806     0.17700
H1037       H  0.40031967  0.90835732  0.28298839     0.17700
F1038       F  0.40759570  0.91339912  0.22361804    -0.20000
C1039       C  0.34183047  0.98511062  0.37183170    -0.21500
C1040       C  0.34708862  0.96648821  0.39730396    -0.09500
C1041       C  0.36725178  0.98821995  0.42360784     0.29400
C1042       C  0.38594890  0.02834392  0.42281265    -0.21500
C1043       C  0.38513217  0.04725508  0.39570863    -0.09500
C1044       C  0.36103029  0.02547006  0.37089552     0.29400
F1045       F  0.36070165  0.04303735  0.34409034    -0.20000
H1046       H  0.32707600  0.96883028  0.35113900     0.17700
H1047       H  0.40492875  0.04471242  0.44191600     0.17700
F1048       F  0.37313505  0.97095682  0.44839824    -0.20000
C1049       C  0.41653841  0.77447567  0.35741239    -0.21500
C1050       C  0.43576244  0.81168687  0.37007503    -0.09500
C1051       C  0.47490747  0.82884170  0.37828550     0.29400
C1052       C  0.49333233  0.80731541  0.37678541    -0.21500
C1053       C  0.47273563  0.76856331  0.36715842    -0.09500
C1054       C  0.43488693  0.75313046  0.35568127     0.29400
F1055       F  0.41452040  0.71621632  0.34524019    -0.20000
H1056       H  0.38634979  0.76090807  0.35098542     0.17700
H1057       H  0.52235067  0.81970585  0.38596396     0.17700
F1058       F  0.49399159  0.86478543  0.39079877    -0.20000
C1059       C  0.12515681  0.49338752  0.26950181    -0.21500
C1060       C  0.14747774  0.48106421  0.28542376    -0.09500
C1061       C  0.16866698  0.46872140  0.26786375     0.29400
C1062       C  0.16735618  0.46881777  0.23532936    -0.21500
C1063       C  0.14515433  0.48133893  0.21942334    -0.09500
C1064       C  0.12393361  0.49360193  0.23703667     0.29400
F1065       F  0.10192536  0.50594704  0.22307520    -0.20000
H1066       H  0.10847491  0.50305118  0.28219708     0.17700
H1067       H  0.18416581  0.45935599  0.22257555     0.17700
F1068       F  0.19115413  0.45703903  0.28195333    -0.20000
C1069       C  0.98463596  0.37622431  0.42203217    -0.21500
C1070       C  0.96326390  0.35635496  0.39556856    -0.09500
C1071       C  0.98216800  0.35092265  0.37041895     0.29400
C1072       C  0.02257707  0.36954456  0.37030168    -0.21500
C1073       C  0.04405813  0.39344038  0.39527549    -0.09500
C1074       C  0.02475000  0.39451475  0.42199387     0.29400
F1075       F  0.04492859  0.41726971  0.44650573    -0.20000
H1076       H  0.97050733  0.38077414  0.44155683     0.17700
H1077       H  0.03704106  0.36895776  0.34932609     0.17700
F1078       F  0.96217039  0.33230952  0.34435809    -0.20000
C1079       C  0.19616362  0.65492217  0.37164779    -0.21500
C1080       C  0.21655424  0.63521227  0.37171826    -0.09500
C1081       C  0.25670919  0.65607835  0.36830038     0.29400
C1082       C  0.27654558  0.69614716  0.36805370    -0.21500
C1083       C  0.25682496  0.71625274  0.37179188    -0.09500
C1084       C  0.21620677  0.69542026  0.37166389     0.29400
F1085       F  0.19615176  0.71386875  0.37478815    -0.20000
H1086       H  0.16512158  0.63915027  0.37427502     0.17700
H1087       H  0.30777290  0.71151306  0.36742990     0.17700
F1088       F  0.27702612  0.63769328  0.36749373    -0.20000
C1089       C  0.31607340  0.57335052  0.35520708    -0.21500
C1090       C  0.29694321  0.53711755  0.36960818    -0.09500
C1091       C  0.31851634  0.52091064  0.38035715     0.29400
C1092       C  0.35889166  0.54238336  0.37921450    -0.21500
C1093       C  0.37793498  0.58010395  0.36755749    -0.09500
C1094       C  0.35628388  0.59482309  0.35428391     0.29400
F1095       F  0.37405932  0.63132030  0.34309577    -0.20000
H1096       H  0.29987639  0.58640395  0.34703607     0.17700
H1097       H  0.37528654  0.53101382  0.39015811     0.17700
F1098       F  0.30096941  0.48666462  0.39546983    -0.20000
C1099       C  0.51771820  0.88839734  0.73667233    -0.21500
C1100       C  0.52966494  0.86677005  0.71949285    -0.09500
C1101       C  0.54220428  0.84470125  0.73550079     0.29400
C1102       C  0.54221736  0.84405021  0.76799898    -0.21500
C1103       C  0.52978872  0.86532922  0.78521837    -0.09500
C1104       C  0.51782477  0.88788286  0.76907692     0.29400
F1105       F  0.50609368  0.90949833  0.78440508    -0.20000
H1106       H  0.50824129  0.90593711  0.72498227     0.17700
H1107       H  0.55150658  0.82635464  0.77966367     0.17700
F1108       F  0.55332856  0.82280291  0.71985698    -0.20000
C1109       C  0.66360744  0.03155724  0.63778586    -0.21500
C1110       C  0.65955086  0.05067281  0.61209716    -0.09500
C1111       C  0.64080021  0.02948951  0.58521171     0.29400
C1112       C  0.62276546  0.98932654  0.58526652    -0.21500
C1113       C  0.62279531  0.96980972  0.61224402    -0.09500
C1114       C  0.64514156  0.99121931  0.63795054     0.29400
F1115       F  0.64469622  0.97301494  0.66461761    -0.20000
H1116       H  0.67724118  0.04738655  0.65892707     0.17700
H1117       H  0.60484514  0.97330482  0.56557457     0.17700
F1118       F  0.63598894  0.04728570  0.56027985    -0.20000
C1119       C  0.56909601  0.78616564  0.52637808    -0.21500
C1120       C  0.55770820  0.81376382  0.52463602    -0.09500
C1121       C  0.55170250  0.82506779  0.49518653     0.29400
C1122       C  0.55296962  0.80617308  0.46842212    -0.21500
C1123       C  0.56006746  0.77566539  0.47048243    -0.09500
C1124       C  0.56976735  0.76678449  0.49946629     0.29400
F1125       F  0.57541267  0.73652218  0.50224174    -0.20000
H1126       H  0.57328108  0.77660400  0.54880247     0.17700
H1127       H  0.54473139  0.81289119  0.44634622     0.17700
F1128       F  0.54090793  0.85179580  0.49253504    -0.20000
C1129       C  0.49054894  0.91448274  0.50662098    -0.21500
C1130       C  0.47110250  0.91096104  0.53449223    -0.09500
C1131       C  0.43638746  0.91105548  0.53381930     0.29400
C1132       C  0.41845842  0.90852313  0.50534900    -0.21500
C1133       C  0.43554785  0.90681315  0.47750292    -0.09500
C1134       C  0.47301185  0.91278606  0.47810192     0.29400
F1135       F  0.48988246  0.91075215  0.45150096    -0.20000
H1136       H  0.51704656  0.91373399  0.50687112     0.17700
H1137       H  0.38946961  0.90381349  0.50518259     0.17700
F1138       F  0.41709548  0.90751540  0.56056178    -0.20000
C1139       C  0.16050158  0.70866843  0.73696383    -0.21500
C1140       C  0.13974975  0.67417044  0.71997997    -0.09500
C1141       C  0.11803814  0.63938966  0.73641449     0.29400
C1142       C  0.11864758  0.63924758  0.76890799    -0.21500
C1143       C  0.14057534  0.67361259  0.78588449    -0.09500
C1144       C  0.16090379  0.70854873  0.76944664     0.29400
F1145       F  0.18190625  0.74269454  0.78456384    -0.20000
H1146       H  0.17709640  0.73596319  0.72510967     0.17700
H1147       H  0.10217182  0.61193477  0.78076413     0.17700
F1148       F  0.09677994  0.60526495  0.72128677    -0.20000
C1149       C  0.02273203  0.64389517  0.58319617    -0.21500
C1150       C  0.04414265  0.66436016  0.60949001    -0.09500
C1151       C  0.02497278  0.66924467  0.63473633     0.29400
C1152       C  0.98452282  0.64979035  0.63506019    -0.21500
C1153       C  0.96316491  0.62531774  0.61033273    -0.09500
C1154       C  0.98253680  0.62438633  0.58359397     0.29400
F1155       F  0.96256868  0.60062838  0.55948942    -0.20000
H1156       H  0.03699012  0.63954383  0.56367768     0.17700
H1157       H  0.97004176  0.65012134  0.65609642     0.17700
F1158       F  0.04482393  0.68793696  0.66082236    -0.20000
C1159       C  0.11753484  0.57821385  0.47368342    -0.21500
C1160       C  0.12128087  0.54560789  0.47601309    -0.09500
C1161       C  0.11932001  0.52944012  0.50537416     0.29400
C1162       C  0.11772803  0.54805584  0.53217168    -0.21500
C1163       C  0.11943180  0.58352214  0.52992002    -0.09500
C1164       C  0.11728034  0.59754654  0.50054324     0.29400
F1165       F  0.11856192  0.63170106  0.49787903    -0.20000
H1166       H  0.11921740  0.59115153  0.45122082     0.17700
H1167       H  0.11963636  0.53703337  0.55467268     0.17700
F1168       F  0.12263821  0.49775107  0.50821411    -0.20000
C1169       C  0.19373813  0.75454861  0.50451181    -0.21500
C1170       C  0.21100461  0.76982833  0.53348584    -0.09500
C1171       C  0.24601270  0.80517637  0.53458181     0.29400
C1172       C  0.26538338  0.82273806  0.50702272    -0.21500
C1173       C  0.24960485  0.80572604  0.47808881    -0.09500
C1174       C  0.21270749  0.77257690  0.47692210     0.29400
F1175       F  0.19726450  0.75506842  0.44927878    -0.20000
H1176       H  0.16729249  0.72680184  0.50323657     0.17700
H1177       H  0.29410167  0.84791120  0.50834630     0.17700
F1178       F  0.26349081  0.82033158  0.56230516    -0.20000
C1179       C  0.31518089  0.80304280  0.63441860    -0.21500
C1180       C  0.29575726  0.76311208  0.63977313    -0.09500
C1181       C  0.31739065  0.74584039  0.64778484     0.29400
C1182       C  0.35746575  0.76689285  0.64616623    -0.21500
C1183       C  0.37670764  0.80560773  0.63709378    -0.09500
C1184       C  0.35561900  0.82432484  0.63316417     0.29400
F1185       F  0.37365662  0.86188518  0.62453837    -0.20000
H1186       H  0.29917604  0.81694355  0.62816557     0.17700
H1187       H  0.37333930  0.75221442  0.64982204     0.17700
F1188       F  0.29969459  0.70763460  0.65431594    -0.20000
C1189       C  0.29699006  0.46529630  0.76959395    -0.21500
C1190       C  0.33178160  0.47820043  0.78592223    -0.09500
C1191       C  0.36604399  0.49157444  0.76883681     0.29400
C1192       C  0.36539594  0.49283705  0.73640254    -0.21500
C1193       C  0.33073700  0.48062422  0.72009889    -0.09500
C1194       C  0.29630055  0.46633304  0.73714539     0.29400
F1195       F  0.26184882  0.45361089  0.72267737    -0.20000
H1196       H  0.27009245  0.45468450  0.78194730     0.17700
H1197       H  0.39232775  0.50367546  0.72405669     0.17700
F1198       F  0.40042550  0.50394002  0.78329202    -0.20000
C1199       C  0.34306823  0.37132828  0.63236928    -0.21500
C1200       C  0.34989857  0.39864166  0.60923074    -0.09500
C1201       C  0.37288055  0.40183134  0.58363802     0.29400
C1202       C  0.39245610  0.38166493  0.58315393    -0.21500
C1203       C  0.38963294  0.35808443  0.60817880    -0.09500
C1204       C  0.36298570  0.35112747  0.63193207     0.29400
F1205       F  0.36020824  0.32905175  0.65670287    -0.20000
H1206       H  0.32581866  0.36880963  0.65244080     0.17700
H1207       H  0.41296507  0.38755273  0.56472104     0.17700
F1208       F  0.37981329  0.42779199  0.56079209    -0.20000
C1209       C  0.25428535  0.44129184  0.50401306    -0.21500
C1210       C  0.23732671  0.44271170  0.53195711    -0.09500
C1211       C  0.20090448  0.43934153  0.53127871     0.29400
C1212       C  0.18388852  0.43913748  0.50278401    -0.21500
C1213       C  0.20300594  0.44215991  0.47482719    -0.09500
C1214       C  0.23725482  0.44102051  0.47553283     0.29400
F1215       F  0.25692463  0.44514028  0.44892606    -0.20000
H1216       H  0.28282304  0.44485516  0.50418431     0.17700
H1217       H  0.15797227  0.44094656  0.50267578     0.17700
F1218       F  0.18442390  0.44157248  0.55804732    -0.20000
C1219       C  0.40922529  0.53408822  0.50133904    -0.21500
C1220       C  0.42295982  0.55208172  0.53033465    -0.09500
C1221       C  0.45905287  0.58619899  0.53222233     0.29400
C1222       C  0.47872355  0.60435418  0.50504111    -0.21500
C1223       C  0.46313507  0.58818635  0.47585299    -0.09500
C1224       C  0.42954684  0.55167630  0.47421005     0.29400
F1225       F  0.41380004  0.53545480  0.44626901    -0.20000
H1226       H  0.38142300  0.50776812  0.49952838     0.17700
H1227       H  0.50447666  0.63263100  0.50664409     0.17700
F1228       F  0.47287425  0.60444996  0.55989833    -0.20000
C1229       C  0.45991203  0.65731296  0.63605118    -0.21500
C1230       C  0.41937509  0.63830467  0.63484018    -0.09500
C1231       C  0.40133242  0.66017693  0.63541576     0.29400
C1232       C  0.42326699  0.70020217  0.63417373    -0.21500
C1233       C  0.46365320  0.71933507  0.63222388    -0.09500
C1234       C  0.48209626  0.69781220  0.63471161     0.29400
F1235       F  0.52104447  0.71545178  0.63265080    -0.20000
H1236       H  0.47428210  0.64084387  0.63529554     0.17700
H1237       H  0.40849678  0.71624630  0.63256368     0.17700
F1238       F  0.36227066  0.64266272  0.63481398    -0.20000
C1239       C  0.23380772  0.59244577  0.65243439    -0.21500
C1240       C  0.19805207  0.57756465  0.63748092    -0.09500
C1241       C  0.17992922  0.54013120  0.62493267     0.29400
C1242       C  0.19923287  0.51941716  0.62468374    -0.21500
C1243       C  0.23675626  0.53604218  0.63690482    -0.09500
C1244       C  0.25293104  0.57172915  0.65240004     0.29400
F1245       F  0.28885124  0.58807373  0.66499898    -0.20000
H1246       H  0.24824311  0.62135559  0.66200136     0.17700
H1247       H  0.18652451  0.49226891  0.61224108     0.17700
F1248       F  0.14546551  0.52540933  0.61004148    -0.20000
loop_ 
_geom_bond_atom_site_label_1 
_geom_bond_atom_site_label_2 
_geom_bond_distance 
_geom_bond_site_symmetry_2 
_ccdc_geom_bond_type 
Fe1          O17   2.049       .  S
Fe1           O7   2.061       .  S
Fe1          O14   2.068       .  S
Fe1           O6   2.036       .  S
Fe1          O12   1.935       .  S
Fe2           O5   2.039       .  S
Fe2           O9   2.089       .  S
Fe2          O13   2.067       .  S
Fe2          O18   2.080       .  S
Fe2          O12   1.958       .  S
Fe3          O21   2.105       .  S
Fe3           O8   2.050       .  S
Fe3          O15   2.067       .  S
Fe3           O4   2.114       .  S
Fe3          O12   1.969       .  S
O4           C11   1.279       .  A
O5           C19   1.267       .  A
O6           C11   1.267       .  A
O7           C10   1.267       .  A
O8           C20   1.268       .  A
O9           C22   1.273       .  A
C10          O15   1.266       .  A
C10        C1210   1.465       .  S
C11        C1243   1.475       .  S
O13          C16   1.267       .  A
O14          C16   1.269       .  A
C16        C1230   1.474       .  S
O17          C22   1.267       .  A
O18          C20   1.274       .  A
C19          O21   1.276       .  A
C19        C1200   1.475       .  S
C20        C1193   1.485       .  S
C22        C1220   1.470       .  S
Fe23         O39   2.042       .  S
Fe23         O29   2.062       .  S
Fe23         O36   2.073       .  S
Fe23         O28   2.032       .  S
Fe23         O34   1.936       .  S
Fe24         O27   2.041       .  S
Fe24         O31   2.086       .  S
Fe24         O35   2.065       .  S
Fe24         O40   2.073       .  S
Fe24         O34   1.957       .  S
Fe25         O43   2.101       .  S
Fe25         O30   2.059       .  S
Fe25         O37   2.080       .  S
Fe25         O26   2.110       .  S
Fe25         O34   1.967       .  S
O26          C33   1.278       .  A
O27          C41   1.267       .  A
O28          C33   1.267       .  A
O29          C32   1.266       .  A
O30          C42   1.271       .  A
O31          C44   1.272       .  A
C32          O37   1.269       .  A
C32        C1170   1.471       .  S
C33        C1180   1.478       .  S
O35          C38   1.266       .  A
O36          C38   1.268       .  A
C38        C1240   1.469       .  S
O39          C44   1.266       .  A
O40          C42   1.272       .  A
C41          O43   1.275       .  A
C41        C1150   1.472       .  S
C42        C1140   1.486       .  S
C44        C1163   1.464       .  S
Fe45         O61   2.046       .  S
Fe45         O51   2.043       .  S
Fe45         O58   2.046       .  S
Fe45         O50   2.047       .  S
Fe45         O56   1.947       .  S
Fe46         O49   2.050       .  S
Fe46         O53   2.066       .  S
Fe46         O57   2.079       .  S
Fe46         O62   2.045       .  S
Fe46         O56   1.976       .  S
Fe47         O65   2.089       .  S
Fe47         O52   2.077       .  S
Fe47         O59   2.097       .  S
Fe47         O48   2.090       .  S
Fe47         O56   1.981       .  S
O48          C55   1.272       .  A
O49          C63   1.268       .  A
O50          C55   1.266       .  A
O51          C54   1.265       .  A
O52          C64   1.272       .  A
O53          C66   1.265       .  A
C54          O59   1.273       .  A
C54        C1120   1.480       .  S
C55        C1233   1.478       .  S
O57          C60   1.269       .  A
O58          C60   1.266       .  A
C60        C1183   1.471       .  S
O61          C66   1.265       .  A
O62          C64   1.267       .  A
C63          O65   1.274       .  A
C63        C1113   1.468       .  S
C64        C1100   1.479       .  S
C66        C1130   1.459       .  S
Fe67         O83   2.045       .  S
Fe67         O73   2.054       .  S
Fe67         O80   2.064       .  S
Fe67         O72   2.037       .  S
Fe67         O78   1.948       .  S
Fe68         O71   2.038       .  S
Fe68         O75   2.083       .  S
Fe68         O79   2.063       .  S
Fe68         O84   2.069       .  S
Fe68         O78   1.971       .  S
Fe69         O87   2.096       .  S
Fe69         O74   2.064       .  S
Fe69         O81   2.078       .  S
Fe69         O70   2.102       .  S
Fe69         O78   1.982       .  S
O70          C77   1.276       .  A
O71          C85   1.267       .  A
O72          C77   1.267       .  A
O73          C76   1.265       .  A
O74          C86   1.269       .  A
O75          C88   1.271       .  A
C76          O81   1.267       .  A
C76        C1213   1.468       .  S
C77        C1090   1.471       .  S
O79          C82   1.265       .  A
O80          C82   1.268       .  A
C82        C1080   1.471       .  S
O83          C88   1.266       .  A
O84          C86   1.271       .  A
C85          O87   1.274       .  A
C85        C1073   1.469       .  S
C86        C1060   1.488       .  S
C88        C1160   1.467       .  S
Fe89        O105   2.039       .  S
Fe89         O95   2.054       .  S
Fe89        O102   2.062       .  S
Fe89         O94   2.035       .  S
Fe89        O100   1.954       .  S
Fe90         O93   2.042       .  S
Fe90         O97   2.081       .  S
Fe90        O101   2.068       .  S
Fe90        O106   2.068       .  S
Fe90        O100   1.979       .  S
Fe91        O109   2.093       .  S
Fe91         O96   2.063       .  S
Fe91        O103   2.079       .  S
Fe91         O92   2.100       .  S
Fe91        O100   1.987       .  S
O92          C99   1.276       .  A
O93         C107   1.267       .  A
O94          C99   1.267       .  A
O95          C98   1.265       .  A
O96         C108   1.269       .  A
O97         C110   1.269       .  A
C98         O103   1.268       .  A
C98        C1173   1.472       .  S
C99        C1083   1.479       .  S
O101        C104   1.266       .  A
O102        C104   1.267       .  A
C104       C1050   1.469       .  S
O105        C110   1.265       .  A
O106        C108   1.270       .  A
C107        O109   1.274       .  A
C107       C1040   1.469       .  S
C108       C1033   1.488       .  S
C110       C1133   1.465       .  S
Fe111       O127   2.042       .  S
Fe111       O117   2.061       .  S
Fe111       O124   2.066       .  S
Fe111       O116   2.037       .  S
Fe111       O122   1.936       .  S
Fe112       O115   2.042       .  S
Fe112       O119   2.092       .  S
Fe112       O123   2.064       .  S
Fe112       O128   2.075       .  S
Fe112       O122   1.957       .  S
Fe113       O131   2.105       .  S
Fe113       O118   2.058       .  S
Fe113       O125   2.081       .  S
Fe113       O114   2.113       .  S
Fe113       O122   1.966       .  S
O114        C121   1.279       .  A
O115        C129   1.267       .  A
O116        C121   1.267       .  A
O117        C120   1.266       .  A
O118        C130   1.272       .  A
O119        C132   1.275       .  A
C120        O125   1.270       .  A
C120       C1123   1.471       .  S
C121       C1053   1.478       .  S
O123        C126   1.264       .  A
O124        C126   1.266       .  A
C126       C1093   1.467       .  S
O127        C132   1.268       .  A
O128        C130   1.273       .  A
C129        O131   1.275       .  A
C129       C1020   1.476       .  S
C130       C1010   1.483       .  S
C132       C1223   1.467       .  S
Fe133       O149   2.084       .  S
Fe133       O139   2.048       .  S
Fe133       O146   2.077       .  S
Fe133       O138   2.069       .  S
Fe133       O144   1.977       .  S
Fe134       O137   2.047       .  S
Fe134       O141   2.040       .  S
Fe134       O145   2.055       .  S
Fe134       O150   2.032       .  S
Fe134       O144   1.948       .  S
Fe135       O153   2.084       .  S
Fe135       O140   2.105       .  S
Fe135       O147   2.098       .  S
Fe135       O136   2.062       .  S
Fe135       O144   1.986       .  S
O136        C143   1.270       .  A
O137        C151   1.263       .  A
O138        C143   1.271       .  A
O139        C142   1.268       .  A
O140        C152   1.276       .  A
O141        C154   1.266       .  A
C142        O147   1.274       .  A
C142       C1023   1.474       .  S
C143        C960   1.484       .  S
O145        C148   1.265       .  A
O146        C148   1.267       .  A
C148        C990   1.475       .  S
O149        C154   1.272       .  A
O150        C152   1.266       .  A
C151        O153   1.269       .  A
C151        C970   1.471       .  S
C152       C1000   1.476       .  S
C154        C980   1.468       .  S
Fe155       O171   2.089       .  S
Fe155       O161   2.037       .  S
Fe155       O168   2.058       .  S
Fe155       O160   2.075       .  S
Fe155       O166   1.963       .  S
Fe156       O159   2.066       .  S
Fe156       O163   2.046       .  S
Fe156       O167   2.073       .  S
Fe156       O172   2.034       .  S
Fe156       O166   1.937       .  S
Fe157       O175   2.078       .  S
Fe157       O162   2.120       .  S
Fe157       O169   2.110       .  S
Fe157       O158   2.056       .  S
Fe157       O166   1.969       .  S
O158        C165   1.269       .  A
O159        C173   1.267       .  A
O160        C165   1.271       .  A
O161        C164   1.267       .  A
O162        C174   1.281       .  A
O163        C176   1.268       .  A
C164        O169   1.278       .  A
C164       C1203   1.475       .  S
C165        C923   1.486       .  S
O167        C170   1.269       .  A
O168        C170   1.264       .  A
C170        C940   1.468       .  S
O171        C176   1.272       .  A
O172        C174   1.268       .  A
C173        O175   1.268       .  A
C173        C930   1.474       .  S
C174        C950   1.483       .  S
C176        C983   1.466       .  S
Fe177       O193   2.074       .  S
Fe177       O183   2.037       .  S
Fe177       O190   2.062       .  S
Fe177       O182   2.058       .  S
Fe177       O188   1.984       .  S
Fe178       O181   2.043       .  S
Fe178       O185   2.041       .  S
Fe178       O189   2.060       .  S
Fe178       O194   2.044       .  S
Fe178       O188   1.954       .  S
Fe179       O197   2.088       .  S
Fe179       O184   2.102       .  S
Fe179       O191   2.097       .  S
Fe179       O180   2.073       .  S
Fe179       O188   1.990       .  S
O180        C187   1.270       .  A
O181        C195   1.263       .  A
O182        C187   1.267       .  A
O183        C186   1.267       .  A
O184        C196   1.277       .  A
O185        C198   1.264       .  A
C186        O191   1.275       .  A
C186       C1043   1.468       .  S
C187        C890   1.487       .  S
O189        C192   1.267       .  A
O190        C192   1.265       .  A
C192        C910   1.465       .  S
O193        C198   1.268       .  A
O194        C196   1.269       .  A
C195        O197   1.269       .  A
C195        C933   1.476       .  S
C196        C993   1.481       .  S
C198        C900   1.461       .  S
Fe199       O215   2.077       .  S
Fe199       O205   2.037       .  S
Fe199       O212   2.061       .  S
Fe199       O204   2.065       .  S
Fe199       O210   1.978       .  S
Fe200       O203   2.054       .  S
Fe200       O207   2.043       .  S
Fe200       O211   2.062       .  S
Fe200       O216   2.035       .  S
Fe200       O210   1.948       .  S
Fe201       O219   2.081       .  S
Fe201       O206   2.102       .  S
Fe201       O213   2.096       .  S
Fe201       O202   2.061       .  S
Fe201       O210   1.985       .  S
O202        C209   1.268       .  A
O203        C217   1.264       .  A
O204        C209   1.270       .  A
O205        C208   1.266       .  A
O206        C218   1.276       .  A
O207        C220   1.266       .  A
C208        O213   1.275       .  A
C208       C1153   1.469       .  S
C209        C863   1.484       .  S
O211        C214   1.268       .  A
O212        C214   1.264       .  A
C214        C883   1.469       .  S
O215        C220   1.269       .  A
O216        C218   1.267       .  A
C217        O219   1.268       .  A
C217        C973   1.472       .  S
C218        C943   1.476       .  S
C220        C870   1.463       .  S
Fe221       O237   2.070       .  S
Fe221       O227   2.037       .  S
Fe221       O234   2.042       .  S
Fe221       O226   2.066       .  S
Fe221       O232   1.937       .  S
Fe222       O225   2.075       .  S
Fe222       O229   2.063       .  S
Fe222       O233   2.086       .  S
Fe222       O238   2.043       .  S
Fe222       O232   1.958       .  S
Fe223       O241   2.065       .  S
Fe223       O228   2.094       .  S
Fe223       O235   2.101       .  S
Fe223       O224   2.081       .  S
Fe223       O232   1.965       .  S
O224        C231   1.269       .  A
O225        C239   1.273       .  A
O226        C231   1.267       .  A
O227        C230   1.267       .  A
O228        C240   1.273       .  A
O229        C242   1.265       .  A
C230        O235   1.277       .  A
C230        C913   1.473       .  S
C231        C853   1.474       .  S
O233        C236   1.273       .  A
O234        C236   1.267       .  A
C236        C873   1.464       .  S
O237        C242   1.268       .  A
O238        C240   1.267       .  A
C239        O241   1.272       .  A
C239        C843   1.487       .  S
C240       C1070   1.470       .  S
C242       C1003   1.469       .  S
Fe243       O259   2.058       .  S
Fe243       O249   2.037       .  S
Fe243       O256   2.043       .  S
Fe243       O248   2.044       .  S
Fe243       O254   1.957       .  S
Fe244       O247   2.055       .  S
Fe244       O251   2.080       .  S
Fe244       O255   2.069       .  S
Fe244       O260   2.052       .  S
Fe244       O254   1.987       .  S
Fe245       O263   2.066       .  S
Fe245       O250   2.086       .  S
Fe245       O257   2.089       .  S
Fe245       O246   2.090       .  S
Fe245       O254   1.998       .  S
O246        C253   1.270       .  A
O247        C261   1.268       .  A
O248        C253   1.263       .  A
O249        C252   1.267       .  A
O250        C262   1.272       .  A
O251        C264   1.268       .  A
C252        O257   1.272       .  A
C252        C880   1.473       .  S
C253        C850   1.476       .  S
O255        C258   1.267       .  A
O256        C258   1.266       .  A
C258        C903   1.462       .  S
O259        C264   1.266       .  A
O260        C262   1.268       .  A
C261        O263   1.270       .  A
C261        C830   1.483       .  S
C262       C1110   1.470       .  S
C264        C953   1.477       .  S
Fe265       O281   2.047       .  S
Fe265       O271   2.058       .  S
Fe265       O278   2.067       .  S
Fe265       O270   2.045       .  S
Fe265       O276   1.942       .  S
Fe266       O269   2.040       .  S
Fe266       O273   2.083       .  S
Fe266       O277   2.062       .  S
Fe266       O282   2.077       .  S
Fe266       O276   1.969       .  S
Fe267       O285   2.102       .  S
Fe267       O272   2.057       .  S
Fe267       O279   2.076       .  S
Fe267       O268   2.111       .  S
Fe267       O276   1.975       .  S
O268        C275   1.277       .  A
O269        C283   1.265       .  A
O270        C275   1.268       .  A
O271        C274   1.266       .  A
O272        C284   1.271       .  A
O273        C286   1.272       .  A
C274        O279   1.269       .  A
C274        C793   1.467       .  S
C275        C823   1.481       .  S
O277        C280   1.265       .  A
O278        C280   1.268       .  A
C280        C813   1.471       .  S
O281        C286   1.267       .  A
O282        C284   1.273       .  A
C283        O285   1.274       .  A
C283        C780   1.473       .  S
C284        C963   1.485       .  S
C286        C800   1.466       .  S
Fe287       O303   2.042       .  S
Fe287       O293   2.046       .  S
Fe287       O300   2.061       .  S
Fe287       O292   2.033       .  S
Fe287       O298   1.948       .  S
Fe288       O291   2.046       .  S
Fe288       O295   2.079       .  S
Fe288       O299   2.072       .  S
Fe288       O304   2.062       .  S
Fe288       O298   1.972       .  S
Fe289       O307   2.106       .  S
Fe289       O294   2.065       .  S
Fe289       O301   2.078       .  S
Fe289       O290   2.112       .  S
Fe289       O298   1.986       .  S
O290        C297   1.279       .  A
O291        C305   1.269       .  A
O292        C297   1.267       .  A
O293        C296   1.263       .  A
O294        C306   1.269       .  A
O295        C308   1.269       .  A
C296        O301   1.267       .  A
C296        C750   1.469       .  S
C297        C770   1.476       .  S
O299        C302   1.268       .  A
O300        C302   1.267       .  A
C302        C763   1.473       .  S
O303        C308   1.265       .  A
O304        C306   1.269       .  A
C305        O307   1.277       .  A
C305        C740   1.477       .  S
C306        C920   1.486       .  S
C308        C803   1.465       .  S
Fe309       O325   2.046       .  S
Fe309       O315   2.064       .  S
Fe309       O322   2.072       .  S
Fe309       O314   2.041       .  S
Fe309       O320   1.934       .  S
Fe310       O313   2.038       .  S
Fe310       O317   2.086       .  S
Fe310       O321   2.064       .  S
Fe310       O326   2.074       .  S
Fe310       O320   1.953       .  S
Fe311       O329   2.093       .  S
Fe311       O316   2.054       .  S
Fe311       O323   2.078       .  S
Fe311       O312   2.100       .  S
Fe311       O320   1.963       .  S
O312        C319   1.276       .  A
O313        C327   1.266       .  A
O314        C319   1.268       .  A
O315        C318   1.267       .  A
O316        C328   1.270       .  A
O317        C330   1.274       .  A
C318        O323   1.269       .  A
C318        C720   1.471       .  S
C319        C730   1.472       .  S
O321        C324   1.265       .  A
O322        C324   1.268       .  A
C324        C773   1.471       .  S
O325        C330   1.268       .  A
O326        C328   1.273       .  A
C327        O329   1.273       .  A
C327        C703   1.469       .  S
C328        C833   1.483       .  S
C330        C710   1.466       .  S
Fe331       O347   2.042       .  S
Fe331       O337   2.050       .  S
Fe331       O344   2.060       .  S
Fe331       O336   2.038       .  S
Fe331       O342   1.956       .  S
Fe332       O335   2.039       .  S
Fe332       O339   2.081       .  S
Fe332       O343   2.059       .  S
Fe332       O348   2.061       .  S
Fe332       O342   1.981       .  S
Fe333       O351   2.103       .  S
Fe333       O338   2.063       .  S
Fe333       O345   2.080       .  S
Fe333       O334   2.104       .  S
Fe333       O342   1.990       .  S
O334        C341   1.276       .  A
O335        C349   1.267       .  A
O336        C341   1.267       .  A
O337        C340   1.265       .  A
O338        C350   1.269       .  A
O339        C352   1.269       .  A
C340        O345   1.268       .  A
C340        C790   1.472       .  S
C341        C760   1.481       .  S
O343        C346   1.264       .  A
O344        C346   1.267       .  A
C346        C733   1.463       .  S
O347        C352   1.265       .  A
O348        C350   1.268       .  A
C349        O351   1.276       .  A
C349        C680   1.472       .  S
C350        C860   1.484       .  S
C352        C690   1.466       .  S
Fe353       O369   2.048       .  S
Fe353       O359   2.054       .  S
Fe353       O366   2.064       .  S
Fe353       O358   2.032       .  S
Fe353       O364   1.947       .  S
Fe354       O357   2.041       .  S
Fe354       O361   2.080       .  S
Fe354       O365   2.061       .  S
Fe354       O370   2.070       .  S
Fe354       O364   1.971       .  S
Fe355       O373   2.103       .  S
Fe355       O360   2.058       .  S
Fe355       O367   2.075       .  S
Fe355       O356   2.110       .  S
Fe355       O364   1.981       .  S
O356        C363   1.277       .  A
O357        C371   1.267       .  A
O358        C363   1.267       .  A
O359        C362   1.265       .  A
O360        C372   1.268       .  A
O361        C374   1.269       .  A
C362        O367   1.267       .  A
C362        C753   1.467       .  S
C363        C810   1.477       .  S
O365        C368   1.266       .  A
O366        C368   1.268       .  A
C368        C673   1.469       .  S
O369        C374   1.267       .  A
O370        C372   1.270       .  A
C371        O373   1.277       .  A
C371        C660   1.472       .  S
C372        C893   1.486       .  S
C374        C713   1.467       .  S
Fe375       O391   2.040       .  S
Fe375       O381   2.045       .  S
Fe375       O388   2.053       .  S
Fe375       O380   2.036       .  S
Fe375       O386   1.960       .  S
Fe376       O379   2.059       .  S
Fe376       O383   2.070       .  S
Fe376       O387   2.087       .  S
Fe376       O392   2.057       .  S
Fe376       O386   1.985       .  S
Fe377       O395   2.091       .  S
Fe377       O382   2.075       .  S
Fe377       O389   2.092       .  S
Fe377       O378   2.093       .  S
Fe377       O386   1.996       .  S
O378        C385   1.273       .  A
O379        C393   1.269       .  A
O380        C385   1.265       .  A
O381        C384   1.265       .  A
O382        C394   1.271       .  A
O383        C396   1.268       .  A
C384        O389   1.271       .  A
C384        C723   1.478       .  S
C385        C670   1.475       .  S
O387        C390   1.269       .  A
O388        C390   1.265       .  A
C390        C820   1.477       .  S
O391        C396   1.265       .  A
O392        C394   1.269       .  A
C393        O395   1.273       .  A
C393        C650   1.475       .  S
C394        C840   1.488       .  S
C396        C693   1.460       .  S
Fe397       O413   2.086       .  S
Fe397       O403   2.036       .  S
Fe397       O410   2.057       .  S
Fe397       O402   2.073       .  S
Fe397       O408   1.957       .  S
Fe398       O401   2.065       .  S
Fe398       O405   2.046       .  S
Fe398       O409   2.075       .  S
Fe398       O414   2.040       .  S
Fe398       O408   1.935       .  S
Fe399       O417   2.076       .  S
Fe399       O404   2.119       .  S
Fe399       O411   2.111       .  S
Fe399       O400   2.058       .  S
Fe399       O408   1.964       .  S
O400        C407   1.271       .  A
O401        C415   1.267       .  A
O402        C407   1.272       .  A
O403        C406   1.266       .  A
O404        C416   1.281       .  A
O405        C418   1.268       .  A
C406        O411   1.277       .  A
C406        C743   1.477       .  S
C407       C1190   1.485       .  S
O409        C412   1.269       .  A
O410        C412   1.264       .  A
C412        C630   1.467       .  S
O413        C418   1.273       .  A
O414        C416   1.269       .  A
C415        O417   1.268       .  A
C415        C613   1.470       .  S
C416        C640   1.483       .  S
C418        C623   1.466       .  S
Fe419       O435   2.083       .  S
Fe419       O425   2.047       .  S
Fe419       O432   2.069       .  S
Fe419       O424   2.067       .  S
Fe419       O430   1.981       .  S
Fe420       O423   2.044       .  S
Fe420       O427   2.041       .  S
Fe420       O431   2.060       .  S
Fe420       O436   2.042       .  S
Fe420       O430   1.955       .  S
Fe421       O439   2.084       .  S
Fe421       O426   2.104       .  S
Fe421       O433   2.104       .  S
Fe421       O422   2.066       .  S
Fe421       O430   1.991       .  S
O422        C429   1.269       .  A
O423        C437   1.263       .  A
O424        C429   1.269       .  A
O425        C428   1.268       .  A
O426        C438   1.277       .  A
O427        C440   1.264       .  A
C428        O433   1.277       .  A
C428        C653   1.475       .  S
C429       C1063   1.489       .  S
O431        C434   1.267       .  A
O432        C434   1.266       .  A
C434        C590   1.469       .  S
O435        C440   1.269       .  A
O436        C438   1.268       .  A
C437        O439   1.269       .  A
C437        C610   1.472       .  S
C438        C600   1.484       .  S
C440        C580   1.466       .  S
Fe441       O457   2.058       .  S
Fe441       O447   2.035       .  S
Fe441       O454   2.038       .  S
Fe441       O446   2.045       .  S
Fe441       O452   1.958       .  S
Fe442       O445   2.063       .  S
Fe442       O449   2.076       .  S
Fe442       O453   2.081       .  S
Fe442       O458   2.050       .  S
Fe442       O452   1.986       .  S
Fe443       O461   2.065       .  S
Fe443       O448   2.096       .  S
Fe443       O455   2.102       .  S
Fe443       O444   2.088       .  S
Fe443       O452   1.993       .  S
O444        C451   1.269       .  A
O445        C459   1.269       .  A
O446        C451   1.263       .  A
O447        C450   1.267       .  A
O448        C460   1.275       .  A
O449        C462   1.268       .  A
C450        O455   1.276       .  A
C450        C570   1.479       .  S
C451        C560   1.476       .  S
O453        C456   1.269       .  A
O454        C456   1.264       .  A
C456        C583   1.465       .  S
O457        C462   1.266       .  A
O458        C460   1.270       .  A
C459        O461   1.269       .  A
C459       C1143   1.487       .  S
C460        C683   1.472       .  S
C462        C643   1.473       .  S
Fe463       O479   2.085       .  S
Fe463       O469   2.039       .  S
Fe463       O476   2.063       .  S
Fe463       O468   2.064       .  S
Fe463       O474   1.967       .  S
Fe464       O467   2.056       .  S
Fe464       O471   2.043       .  S
Fe464       O475   2.067       .  S
Fe464       O480   2.030       .  S
Fe464       O474   1.943       .  S
Fe465       O483   2.083       .  S
Fe465       O470   2.107       .  S
Fe465       O477   2.100       .  S
Fe465       O466   2.061       .  S
Fe465       O474   1.978       .  S
O466        C473   1.270       .  A
O467        C481   1.265       .  A
O468        C473   1.270       .  A
O469        C472   1.268       .  A
O470        C482   1.277       .  A
O471        C484   1.266       .  A
C472        O477   1.275       .  A
C472        C700   1.470       .  S
C473       C1103   1.483       .  S
O475        C478   1.268       .  A
O476        C478   1.265       .  A
C478        C573   1.472       .  S
O479        C484   1.271       .  A
O480        C482   1.266       .  A
C481        O483   1.269       .  A
C481        C540   1.472       .  S
C482        C633   1.472       .  S
C484        C553   1.469       .  S
Fe485       O501   2.067       .  S
Fe485       O491   2.042       .  S
Fe485       O498   2.046       .  S
Fe485       O490   2.056       .  S
Fe485       O496   1.940       .  S
Fe486       O489   2.078       .  S
Fe486       O493   2.066       .  S
Fe486       O497   2.088       .  S
Fe486       O502   2.046       .  S
Fe486       O496   1.964       .  S
Fe487       O505   2.065       .  S
Fe487       O492   2.099       .  S
Fe487       O499   2.107       .  S
Fe487       O488   2.083       .  S
Fe487       O496   1.969       .  S
O488        C495   1.270       .  A
O489        C503   1.273       .  A
O490        C495   1.265       .  A
O491        C494   1.268       .  A
O492        C504   1.275       .  A
O493        C506   1.266       .  A
C494        O499   1.278       .  A
C494        C593   1.479       .  S
C495        C563   1.471       .  S
O497        C500   1.273       .  A
O498        C500   1.266       .  A
C500        C550   1.465       .  S
O501        C506   1.268       .  A
O502        C504   1.268       .  A
C503        O505   1.272       .  A
C503       C1030   1.490       .  S
C504        C663   1.473       .  S
C506        C530   1.470       .  S
Fe507       O523   2.058       .  S
Fe507       O513   2.034       .  S
Fe507       O520   2.041       .  S
Fe507       O512   2.052       .  S
Fe507       O518   1.953       .  S
Fe508       O511   2.062       .  S
Fe508       O515   2.077       .  S
Fe508       O519   2.079       .  S
Fe508       O524   2.053       .  S
Fe508       O518   1.981       .  S
Fe509       O527   2.059       .  S
Fe509       O514   2.091       .  S
Fe509       O521   2.097       .  S
Fe509       O510   2.080       .  S
Fe509       O518   1.990       .  S
O510        C517   1.268       .  A
O511        C525   1.269       .  A
O512        C517   1.264       .  A
O513        C516   1.266       .  A
O514        C526   1.274       .  A
O515        C528   1.268       .  A
C516        O521   1.275       .  A
C516        C533   1.473       .  S
C517        C543   1.472       .  S
O519        C522   1.269       .  A
O520        C522   1.265       .  A
C522        C620   1.464       .  S
O523        C528   1.267       .  A
O524        C526   1.270       .  A
C525        O527   1.268       .  A
C525       C1013   1.484       .  S
C526        C783   1.471       .  S
C528        C603   1.477       .  S
C529        C530   1.405       .  A
C529        C534   1.405       .  A
C529        H536   1.083       .  S
C530        C531   1.401       .  A
C531        C532   1.392       .  A
C531        F538   1.354       .  S
C532        C533   1.403       .  A
C532        H537   1.084       .  S
C533        C534   1.406       .  A
C534        F535   1.357       .  S
C539        C540   1.404   1_554  A
C539        C544   1.401       .  A
C539        H546   1.084       .  S
C540        C541   1.406       .  A
C541        C542   1.401   1_556  A
C541        F548   1.357       .  S
C542        C543   1.403       .  A
C542        H547   1.084       .  S
C543        C544   1.405       .  A
C544        F545   1.358       .  S
C549        C550   1.401       .  A
C549        C554   1.395       .  A
C549        H556   1.084       .  S
C550        C551   1.406       .  A
C551        C552   1.398   1_554  A
C551        F558   1.358   1_554  S
C552        C553   1.403       .  A
C552        H557   1.083       .  S
C553        C554   1.406   1_556  A
C554        F555   1.358       .  S
C559        C560   1.403   1_554  A
C559        C564   1.398       .  A
C559        H566   1.084       .  S
C560        C561   1.407       .  A
C561        C562   1.405   1_556  A
C561        F568   1.357       .  S
C562        C563   1.405       .  A
C562        H567   1.084       .  S
C563        C564   1.404       .  A
C564        F565   1.358       .  S
C569        C570   1.406       .  A
C569        C574   1.393       .  A
C569        H576   1.084       .  S
C570        C571   1.407       .  A
C571        C572   1.405       .  A
C571        F578   1.357       .  S
C572        C573   1.406       .  A
C572        H577   1.083       .  S
C573        C574   1.402       .  A
C574        F575   1.358       .  S
C579        C580   1.404       .  A
C579        C584   1.397   1_554  A
C579        H586   1.084       .  S
C580        C581   1.404       .  A
C581        C582   1.396       .  A
C581        F588   1.358       .  S
C582        C583   1.403   1_554  A
C582        H587   1.085       .  S
C583        C584   1.403       .  A
C584        F585   1.358       .  S
C589        C590   1.398       .  A
C589        C594   1.393       .  A
C589        H596   1.084       .  S
C590        C591   1.406       .  A
C591        C592   1.404       .  A
C591        F598   1.357       .  S
C592        C593   1.406       .  A
C592        H597   1.084       .  S
C593        C594   1.407       .  A
C594        F595   1.354       .  S
C599        C600   1.407       .  A
C599        C604   1.408       .  A
C599        H606   1.083       .  S
C600        C601   1.408       .  A
C601        C602   1.392       .  A
C601        F608   1.357       .  S
C602        C603   1.400       .  A
C602        H607   1.084       .  S
C603        C604   1.408       .  A
C604        F605   1.357       .  S
C609        C610   1.403   1_556  A
C609        C614   1.397       .  A
C609        H616   1.085       .  S
C610        C611   1.406       .  A
C611        C612   1.403       .  A
C611        F618   1.357       .  S
C612        C613   1.403   1_554  A
C612        H617   1.084       .  S
C613        C614   1.404       .  A
C614        F615   1.358       .  S
C619        C620   1.402       .  A
C619        C624   1.397       .  A
C619        H626   1.083       .  S
C620        C621   1.404       .  A
C621        C622   1.396   1_554  A
C621        F628   1.358   1_554  S
C622        C623   1.402       .  A
C622        H627   1.083       .  S
C623        C624   1.405   1_556  A
C624        F625   1.358       .  S
C629        C630   1.404       .  A
C629        C634   1.402       .  A
C629        H636   1.085       .  S
C630        C631   1.400       .  A
C631        C632   1.394       .  A
C631        F638   1.356       .  S
C632        C633   1.405       .  A
C632        H637   1.085       .  S
C633        C634   1.406       .  A
C634        F635   1.357       .  S
C639        C640   1.407       .  A
C639        C644   1.406       .  A
C639        H646   1.083       .  S
C640        C641   1.408       .  A
C641        C642   1.395       .  A
C641        F648   1.357       .  S
C642        C643   1.400       .  A
C642        H647   1.084       .  S
C643        C644   1.406       .  A
C644        F645   1.357       .  S
C649        C650   1.405       .  A
C649        C654   1.405   1_655  A
C649        H656   1.083       .  S
C650        C651   1.404       .  A
C651        C652   1.399   1_655  A
C651        F658   1.358       .  S
C652        C653   1.404       .  A
C652        H657   1.083       .  S
C653        C654   1.406       .  A
C654        F655   1.357       .  S
C659        C660   1.404       .  A
C659        C664   1.397   1_545  A
C659        H666   1.083       .  S
C660        C661   1.406       .  A
C661        C662   1.404   1_545  A
C661        F668   1.357       .  S
C662        C663   1.404       .  A
C662        H667   1.083       .  S
C663        C664   1.404       .  A
C664        F665   1.358       .  S
C669        C670   1.404       .  A
C669        C674   1.404       .  A
C669        H676   1.083       .  S
C670        C671   1.408       .  A
C671        C672   1.392       .  A
C671        F678   1.358       .  S
C672        C673   1.399       .  A
C672        H677   1.084       .  S
C673        C674   1.407       .  A
C674        F675   1.357       .  S
C679        C680   1.405       .  A
C679        C684   1.405   1_655  A
C679        H686   1.084       .  S
C680        C681   1.405       .  A
C681        C682   1.396   1_655  A
C681        F688   1.358       .  S
C682        C683   1.402       .  A
C682        H687   1.084       .  S
C683        C684   1.407       .  A
C684        F685   1.357       .  S
C689        C690   1.402       .  A
C689        C694   1.398   1_556  A
C689        H696   1.084       .  S
C690        C691   1.405   1_556  A
C691        C692   1.395       .  A
C691        F698   1.357       .  S
C692        C693   1.400       .  A
C692        H697   1.085       .  S
C693        C694   1.405       .  A
C694        F695   1.358       .  S
C699        C700   1.402       .  A
C699        C704   1.393   1_565  A
C699        H706   1.083       .  S
C700        C701   1.407       .  A
C701        C702   1.404   1_565  A
C701        F708   1.358       .  S
C702        C703   1.404       .  A
C702        H707   1.083       .  S
C703        C704   1.403       .  A
C704        F705   1.358       .  S
C709        C710   1.404   1_554  A
C709        C714   1.397       .  A
C709        H716   1.085       .  S
C710        C711   1.404       .  A
C711        C712   1.395   1_556  A
C711        F718   1.358       .  S
C712        C713   1.402       .  A
C712        H717   1.084   1_554  S
C713        C714   1.406       .  A
C714        F715   1.358       .  S
C719        C720   1.405       .  A
C719        C724   1.406   1_556  A
C719        H726   1.083   1_556  S
C720        C721   1.403       .  A
C721        C722   1.395       .  A
C721        F728   1.357       .  S
C722        C723   1.404   1_556  A
C722        H727   1.084       .  S
C723        C724   1.408       .  A
C724        F725   1.357       .  S
C729        C730   1.404       .  A
C729        C734   1.399       .  A
C729        H736   1.082       .  S
C730        C731   1.406       .  A
C731        C732   1.394       .  A
C731        F738   1.357       .  S
C732        C733   1.399       .  A
C732        H737   1.081       .  S
C733        C734   1.403       .  A
C734        F735   1.357       .  S
C739        C740   1.406       .  A
C739        C744   1.407       .  A
C739        H746   1.083       .  S
C740        C741   1.405       .  A
C741        C742   1.395       .  A
C741        F748   1.358       .  S
C742        C743   1.404       .  A
C742        H747   1.084       .  S
C743        C744   1.407       .  A
C744        F745   1.357       .  S
C749        C750   1.402   1_554  A
C749        C754   1.395       .  A
C749        H756   1.085       .  S
C750        C751   1.406       .  A
C751        C752   1.403   1_556  A
C751        F758   1.357       .  S
C752        C753   1.403       .  A
C752        H757   1.084       .  S
C753        C754   1.404       .  A
C754        F755   1.358       .  S
C759        C760   1.406       .  A
C759        C764   1.407       .  A
C759        H766   1.083       .  S
C760        C761   1.409       .  A
C761        C762   1.393       .  A
C761        F768   1.357       .  S
C762        C763   1.400       .  A
C762        H767   1.084       .  S
C763        C764   1.407       .  A
C764        F765   1.357       .  S
C769        C770   1.406       .  A
C769        C774   1.395       .  A
C769        H776   1.084       .  S
C770        C771   1.406       .  A
C771        C772   1.405       .  A
C771        F778   1.357       .  S
C772        C773   1.405       .  A
C772        H777   1.083       .  S
C773        C774   1.401       .  A
C774        F775   1.356       .  S
C779        C780   1.404       .  A
C779        C784   1.396       .  A
C779        H786   1.084       .  S
C780        C781   1.406       .  A
C781        C782   1.404       .  A
C781        F788   1.357       .  S
C782        C783   1.405       .  A
C782        H787   1.083       .  S
C783        C784   1.403       .  A
C784        F785   1.358       .  S
C789        C790   1.405       .  A
C789        C794   1.403   1_556  A
C789        H796   1.084       .  S
C790        C791   1.404   1_556  A
C791        C792   1.396       .  A
C791        F798   1.357       .  S
C792        C793   1.402       .  A
C792        H797   1.085       .  S
C793        C794   1.405       .  A
C794        F795   1.357       .  S
C799        C800   1.402       .  A
C799        C804   1.396       .  A
C799        H806   1.083       .  S
C800        C801   1.405   1_554  A
C801        C802   1.397       .  A
C801        F808   1.358       .  S
C802        C803   1.402       .  A
C802        H807   1.083       .  S
C803        C804   1.404   1_556  A
C804        F805   1.358       .  S
C809        C810   1.405       .  A
C809        C814   1.391       .  A
C809        H816   1.084       .  S
C810        C811   1.408       .  A
C811        C812   1.407       .  A
C811        F818   1.357       .  S
C812        C813   1.406       .  A
C812        H817   1.083       .  S
C813        C814   1.400       .  A
C814        F815   1.356       .  S
C819        C820   1.401       .  A
C819        C824   1.396       .  A
C819        H826   1.082       .  S
C820        C821   1.407       .  A
C821        C822   1.407       .  A
C821        F828   1.357       .  S
C822        C823   1.407       .  A
C822        H827   1.083       .  S
C823        C824   1.406       .  A
C824        F825   1.356       .  S
C829        C830   1.407       .  A
C829        C834   1.395       .  A
C829        H836   1.083       .  S
C830        C831   1.409       .  A
C831        C832   1.396       .  A
C831        F838   1.357       .  S
C832        C833   1.406       .  A
C832        H837   1.083       .  S
C833        C834   1.409       .  A
C834        F835   1.358       .  S
C839        C840   1.407       .  A
C839        C844   1.396       .  A
C839        H846   1.083       .  S
C840        C841   1.410       .  A
C841        C842   1.400       .  A
C841        F848   1.357       .  S
C842        C843   1.407       .  A
C842        H847   1.083       .  S
C843        C844   1.410       .  A
C844        F845   1.358       .  S
C849        C850   1.405       .  A
C849        C854   1.405       .  A
C849        H856   1.084       .  S
C850        C851   1.406       .  A
C851        C852   1.398       .  A
C851        F858   1.358       .  S
C852        C853   1.402       .  A
C852        H857   1.084       .  S
C853        C854   1.406       .  A
C854        F855   1.357       .  S
C859        C860   1.406       .  A
C859        C864   1.398       .  A
C859        H866   1.084       .  S
C860        C861   1.410       .  A
C861        C862   1.396       .  A
C861        F868   1.358       .  S
C862        C863   1.405       .  A
C862        H867   1.084       .  S
C863        C864   1.410       .  A
C864        F865   1.357       .  S
C869        C870   1.402       .  A
C869        C874   1.396       .  A
C869        H876   1.083       .  S
C870        C871   1.404       .  A
C871        C872   1.395       .  A
C871        F878   1.358       .  S
C872        C873   1.402       .  A
C872        H877   1.083       .  S
C873        C874   1.405       .  A
C874        F875   1.358       .  S
C879        C880   1.402       .  A
C879        C884   1.389       .  A
C879        H886   1.082       .  S
C880        C881   1.407       .  A
C881        C882   1.406       .  A
C881        F888   1.357       .  S
C882        C883   1.406       .  A
C882        H887   1.083       .  S
C883        C884   1.400       .  A
C884        F885   1.356       .  S
C889        C890   1.406       .  A
C889        C894   1.399       .  A
C889        H896   1.084       .  S
C890        C891   1.411       .  A
C891        C892   1.397       .  A
C891        F898   1.358       .  S
C892        C893   1.406       .  A
C892        H897   1.084       .  S
C893        C894   1.411       .  A
C894        F895   1.357       .  S
C899        C900   1.404       .  A
C899        C904   1.397       .  A
C899        H906   1.083       .  S
C900        C901   1.402       .  A
C901        C902   1.394       .  A
C901        F908   1.358       .  S
C902        C903   1.403       .  A
C902        H907   1.083       .  S
C903        C904   1.403       .  A
C904        F905   1.358       .  S
C909        C910   1.403       .  A
C909        C914   1.402       .  A
C909        H916   1.083       .  S
C910        C911   1.400       .  A
C911        C912   1.393       .  A
C911        F918   1.356       .  S
C912        C913   1.404       .  A
C912        H917   1.083       .  S
C913        C914   1.408       .  A
C914        F915   1.357       .  S
C919        C920   1.407       .  A
C919        C924   1.395       .  A
C919        H926   1.083       .  S
C920        C921   1.409       .  A
C921        C922   1.399       .  A
C921        F928   1.358       .  S
C922        C923   1.408       .  A
C922        H927   1.083       .  S
C923        C924   1.409       .  A
C924        F925   1.357       .  S
C929        C930   1.402       .  A
C929        C934   1.397       .  A
C929        H936   1.084       .  S
C930        C931   1.405       .  A
C931        C932   1.406       .  A
C931        F938   1.357       .  S
C932        C933   1.406       .  A
C932        H937   1.084       .  S
C933        C934   1.406       .  A
C934        F935   1.358       .  S
C939        C940   1.405       .  A
C939        C944   1.405       .  A
C939        H946   1.084       .  S
C940        C941   1.400       .  A
C941        C942   1.391       .  A
C941        F948   1.357       .  S
C942        C943   1.404       .  A
C942        H947   1.082       .  S
C943        C944   1.407       .  A
C944        F945   1.357       .  S
C949        C950   1.405       .  A
C949        C954   1.393       .  A
C949        H956   1.083       .  S
C950        C951   1.409       .  A
C951        C952   1.408       .  A
C951        F958   1.357       .  S
C952        C953   1.407       .  A
C952        H957   1.083       .  S
C953        C954   1.402       .  A
C954        F955   1.356       .  S
C959        C960   1.406       .  A
C959        C964   1.398       .  A
C959        H966   1.083       .  S
C960        C961   1.408       .  A
C961        C962   1.396       .  A
C961        F968   1.358       .  S
C962        C963   1.406       .  A
C962        H967   1.083       .  S
C963        C964   1.410       .  A
C964        F965   1.357       .  S
C969        C970   1.404       .  A
C969        C974   1.401       .  A
C969        H976   1.085       .  S
C970        C971   1.405       .  A
C971        C972   1.400       .  A
C971        F978   1.358       .  S
C972        C973   1.403       .  A
C972        H977   1.085       .  S
C973        C974   1.405       .  A
C974        F975   1.358       .  S
C979        C980   1.405       .  A
C979        C984   1.395       .  A
C979        H986   1.084       .  S
C980        C981   1.405       .  A
C981        C982   1.397       .  A
C981        F988   1.357       .  S
C982        C983   1.403       .  A
C982        H987   1.084       .  S
C983        C984   1.404       .  A
C984        F985   1.358       .  S
C989        C990   1.406       .  A
C989        C994   1.408       .  A
C989        H996   1.085       .  S
C990        C991   1.403       .  A
C991        C992   1.392       .  A
C991        F998   1.357       .  S
C992        C993   1.403       .  A
C992        H997   1.084       .  S
C993        C994   1.409       .  A
C994        F995   1.357       .  S
C999       C1000   1.404       .  A
C999       C1004   1.392       .  A
C999       H1006   1.083       .  S
C1000      C1001   1.407       .  A
C1001      C1002   1.406       .  A
C1001      F1008   1.357       .  S
C1002      C1003   1.406       .  A
C1002      H1007   1.084       .  S
C1003      C1004   1.400       .  A
C1004      F1005   1.358       .  S
C1009      C1010   1.406       .  A
C1009      C1014   1.397       .  A
C1009      H1016   1.084       .  S
C1010      C1011   1.409       .  A
C1011      C1012   1.396       .  A
C1011      F1018   1.358       .  S
C1012      C1013   1.406       .  A
C1012      H1017   1.083       .  S
C1013      C1014   1.410       .  A
C1014      F1015   1.357       .  S
C1019      C1020   1.403       .  A
C1019      C1024   1.396       .  A
C1019      H1026   1.084       .  S
C1020      C1021   1.408       .  A
C1021      C1022   1.406       .  A
C1021      F1028   1.357       .  S
C1022      C1023   1.405       .  A
C1022      H1027   1.083       .  S
C1023      C1024   1.404       .  A
C1024      F1025   1.358       .  S
C1029      C1030   1.407       .  A
C1029      C1034   1.398       .  A
C1029      H1036   1.083       .  S
C1030      C1031   1.411       .  A
C1031      C1032   1.398       .  A
C1031      F1038   1.357       .  S
C1032      C1033   1.407       .  A
C1032      H1037   1.083       .  S
C1033      C1034   1.410       .  A
C1034      F1035   1.357       .  S
C1039      C1040   1.404       .  A
C1039      C1044   1.403   1_565  A
C1039      H1046   1.083       .  S
C1040      C1041   1.404       .  A
C1041      C1042   1.395   1_565  A
C1041      F1048   1.358       .  S
C1042      C1043   1.403       .  A
C1042      H1047   1.084       .  S
C1043      C1044   1.405       .  A
C1044      F1045   1.357       .  S
C1049      C1050   1.400       .  A
C1049      C1054   1.395       .  A
C1049      H1056   1.083       .  S
C1050      C1051   1.405       .  A
C1051      C1052   1.404       .  A
C1051      F1058   1.357       .  S
C1052      C1053   1.406       .  A
C1052      H1057   1.083       .  S
C1053      C1054   1.408       .  A
C1054      F1055   1.357       .  S
C1059      C1060   1.406       .  A
C1059      C1064   1.397       .  A
C1059      H1066   1.084       .  S
C1060      C1061   1.410       .  A
C1061      C1062   1.400       .  A
C1061      F1068   1.357       .  S
C1062      C1063   1.407       .  A
C1062      H1067   1.083       .  S
C1063      C1064   1.410       .  A
C1064      F1065   1.357       .  S
C1069      C1070   1.402       .  A
C1069      C1074   1.394   1_655  A
C1069      H1076   1.084       .  S
C1070      C1071   1.406       .  A
C1071      C1072   1.403   1_655  A
C1071      F1078   1.357       .  S
C1072      C1073   1.404       .  A
C1072      H1077   1.083       .  S
C1073      C1074   1.404       .  A
C1074      F1075   1.358       .  S
C1079      C1080   1.406       .  A
C1079      C1084   1.406       .  A
C1079      H1086   1.083       .  S
C1080      C1081   1.401       .  A
C1081      C1082   1.391       .  A
C1081      F1088   1.358       .  S
C1082      C1083   1.406       .  A
C1082      H1087   1.083       .  S
C1083      C1084   1.408       .  A
C1084      F1085   1.357       .  S
C1089      C1090   1.404       .  A
C1089      C1094   1.396       .  A
C1089      H1096   1.085       .  S
C1090      C1091   1.405       .  A
C1091      C1092   1.402       .  A
C1091      F1098   1.357       .  S
C1092      C1093   1.404       .  A
C1092      H1097   1.084       .  S
C1093      C1094   1.402       .  A
C1094      F1095   1.357       .  S
C1099      C1100   1.404       .  A
C1099      C1104   1.394       .  A
C1099      H1106   1.084       .  S
C1100      C1101   1.407       .  A
C1101      C1102   1.398       .  A
C1101      F1108   1.357       .  S
C1102      C1103   1.407       .  A
C1102      H1107   1.083       .  S
C1103      C1104   1.410       .  A
C1104      F1105   1.358       .  S
C1109      C1110   1.404       .  A
C1109      C1114   1.403   1_545  A
C1109      H1116   1.083       .  S
C1110      C1111   1.404       .  A
C1111      C1112   1.398   1_545  A
C1111      F1118   1.358       .  S
C1112      C1113   1.403       .  A
C1112      H1117   1.083       .  S
C1113      C1114   1.405       .  A
C1114      F1115   1.358       .  S
C1119      C1120   1.407       .  A
C1119      C1124   1.405       .  A
C1119      H1126   1.083       .  S
C1120      C1121   1.407       .  A
C1121      C1122   1.396       .  A
C1121      F1128   1.358       .  S
C1122      C1123   1.402       .  A
C1122      H1127   1.084       .  S
C1123      C1124   1.405       .  A
C1124      F1125   1.357       .  S
C1129      C1130   1.403       .  A
C1129      C1134   1.397       .  A
C1129      H1136   1.084       .  S
C1130      C1131   1.402       .  A
C1131      C1132   1.396       .  A
C1131      F1138   1.358       .  S
C1132      C1133   1.404       .  A
C1132      H1137   1.084       .  S
C1133      C1134   1.403       .  A
C1134      F1135   1.358       .  S
C1139      C1140   1.406       .  A
C1139      C1144   1.397       .  A
C1139      H1146   1.083       .  S
C1140      C1141   1.410       .  A
C1141      C1142   1.398       .  A
C1141      F1148   1.358       .  S
C1142      C1143   1.407       .  A
C1142      H1147   1.083       .  S
C1143      C1144   1.410       .  A
C1144      F1145   1.357       .  S
C1149      C1150   1.403       .  A
C1149      C1154   1.394   1_455  A
C1149      H1156   1.083       .  S
C1150      C1151   1.407       .  A
C1151      C1152   1.403   1_455  A
C1151      F1158   1.357       .  S
C1152      C1153   1.404       .  A
C1152      H1157   1.083       .  S
C1153      C1154   1.405       .  A
C1154      F1155   1.358       .  S
C1159      C1160   1.403       .  A
C1159      C1164   1.397       .  A
C1159      H1166   1.084       .  S
C1160      C1161   1.406       .  A
C1161      C1162   1.395       .  A
C1161      F1168   1.358       .  S
C1162      C1163   1.401       .  A
C1162      H1167   1.084       .  S
C1163      C1164   1.405       .  A
C1164      F1165   1.358       .  S
C1169      C1170   1.404       .  A
C1169      C1174   1.401       .  A
C1169      H1176   1.084       .  S
C1170      C1171   1.405       .  A
C1171      C1172   1.401       .  A
C1171      F1178   1.358       .  S
C1172      C1173   1.404       .  A
C1172      H1177   1.084       .  S
C1173      C1174   1.405       .  A
C1174      F1175   1.358       .  S
C1179      C1180   1.406       .  A
C1179      C1184   1.404       .  A
C1179      H1186   1.082       .  S
C1180      C1181   1.408       .  A
C1181      C1182   1.392       .  A
C1181      F1188   1.358       .  S
C1182      C1183   1.401       .  A
C1182      H1187   1.082       .  S
C1183      C1184   1.406       .  A
C1184      F1185   1.357       .  S
C1189      C1190   1.406       .  A
C1189      C1194   1.397       .  A
C1189      H1196   1.083       .  S
C1190      C1191   1.410       .  A
C1191      C1192   1.396       .  A
C1191      F1198   1.357       .  S
C1192      C1193   1.405       .  A
C1192      H1197   1.083       .  S
C1193      C1194   1.411       .  A
C1194      F1195   1.358       .  S
C1199      C1200   1.405       .  A
C1199      C1204   1.407       .  A
C1199      H1206   1.083       .  S
C1200      C1201   1.405       .  A
C1201      C1202   1.394       .  A
C1201      F1208   1.359       .  S
C1202      C1203   1.403       .  A
C1202      H1207   1.084       .  S
C1203      C1204   1.407       .  A
C1204      F1205   1.357       .  S
C1209      C1210   1.401       .  A
C1209      C1214   1.398       .  A
C1209      H1216   1.084       .  S
C1210      C1211   1.404       .  A
C1211      C1212   1.399       .  A
C1211      F1218   1.358       .  S
C1212      C1213   1.403       .  A
C1212      H1217   1.084       .  S
C1213      C1214   1.405       .  A
C1214      F1215   1.357       .  S
C1219      C1220   1.404       .  A
C1219      C1224   1.397       .  A
C1219      H1226   1.084       .  S
C1220      C1221   1.405       .  A
C1221      C1222   1.396       .  A
C1221      F1228   1.358       .  S
C1222      C1223   1.403       .  A
C1222      H1227   1.084       .  S
C1223      C1224   1.404       .  A
C1224      F1225   1.358       .  S
C1229      C1230   1.408       .  A
C1229      C1234   1.408       .  A
C1229      H1236   1.083       .  S
C1230      C1231   1.402       .  A
C1231      C1232   1.392       .  A
C1231      F1238   1.358       .  S
C1232      C1233   1.405       .  A
C1232      H1237   1.083       .  S
C1233      C1234   1.406       .  A
C1234      F1235   1.357       .  S
C1239      C1240   1.400       .  A
C1239      C1244   1.397       .  A
C1239      H1246   1.083       .  S
C1240      C1241   1.406       .  A
C1241      C1242   1.403       .  A
C1241      F1248   1.357       .  S
C1242      C1243   1.404       .  A
C1242      H1247   1.083       .  S
C1243      C1244   1.407       .  A
C1244      F1245   1.358       .  S
