geometry optimzed in LAMMPS
_audit_creation_date              2020-12-01 
_audit_creation_method            'lammps2cif' 
_symmetry_space_group_name_H-M    'P1' 
_symmetry_Int_Tables_number       1 
_symmetry_cell_setting            triclinic 
loop_ 
_symmetry_equiv_pos_as_xyz 
  x,y,z 
_cell_length_a                    54.64446468 
_cell_length_b                    54.92234674693268 
_cell_length_c                    35.436299676794235 
_cell_angle_alpha                 90.31617164789476 
_cell_angle_beta                  90.10229367637346 
_cell_angle_gamma                 89.55533779796983 
loop_ 
_atom_site_label 
_atom_site_type_symbol 
_atom_site_fract_x 
_atom_site_fract_y 
_atom_site_fract_z 
_atom_site_charge 
Zr1        Zr  0.59198580  0.05126650  0.66331348     2.17500
O2          O  0.61523532  0.02199330  0.62536625    -0.51400
O3          O  0.56112523  0.03095892  0.62208506    -0.74600
O4          O  0.60457790  0.01459665  0.69913102    -0.81400
O5          O  0.60814483  0.10574811  0.59938762    -0.83200
O6          O  0.59335067  0.01806948  0.76081809    -0.78800
O7          O  0.62098970  0.06781485  0.61635170    -0.90400
O8          O  0.52300581  0.04325857  0.63943642    -0.76400
O9          O  0.55807350  0.04701535  0.70514981    -0.85900
O10         O  0.56174661  0.07971879  0.64174970    -0.85600
O11         O  0.60721973  0.06131417  0.72593447    -0.72300
O12         O  0.60950560  0.09113527  0.66911916    -0.84500
Zr13       Zr  0.56068695  0.12423624  0.75064227     2.26400
Zr14       Zr  0.57262188  0.05712427  0.76736688     2.06300
Zr15       Zr  0.57930328  0.11944922  0.64735771     2.10000
Zr16       Zr  0.52813644  0.07575797  0.68403837     1.78800
O17         O  0.60543458  0.15376823  0.63226828    -0.93300
O18         O  0.49923670  0.04764663  0.71224102    -0.41100
O19         O  0.54530257  0.11525561  0.68894378    -0.77700
O20         O  0.54168629  0.08500493  0.74642688    -0.96400
O21         O  0.59093654  0.09655005  0.77272806    -0.89700
O22         O  0.59426667  0.12974056  0.70902612    -0.92500
C23         C  0.53752813  0.03036583  0.61927541     1.01200
C24         C  0.62246888  0.08720376  0.59596018     1.14100
C25         C  0.60348438  0.00661543  0.73326301     1.04900
O26         O  0.54332289  0.02543304  0.78240215    -0.94700
O27         O  0.54850087  0.07191581  0.82129396    -0.90400
O28         O  0.54346971  0.11240965  0.81056483    -0.83600
C29         C  0.54028540  0.09319597  0.83022076     1.11600
O30         O  0.66162100  0.07952476  0.71294269    -0.96700
Zr31       Zr  0.62437394  0.10148580  0.73060021     1.88900
O32         O  0.59015518  0.15203612  0.77794856    -0.73300
O33         O  0.59702216  0.05187083  0.82436992    -0.52600
O34         O  0.64733115  0.08886505  0.78626009    -0.97300
O35         O  0.65145112  0.12790174  0.69496340    -0.54500
O36         O  0.62870374  0.13717283  0.77140665    -0.73800
C37         C  0.61328860  0.15308260  0.78358551     0.98500
O38         O  0.53607985  0.15184273  0.78964762    -0.62700
O39         O  0.55778481  0.12262107  0.58726773    -0.57500
O40         O  0.53968392  0.15491477  0.71393194    -0.94100
O41         O  0.55382040  0.15613469  0.65372852    -0.92600
O42         O  0.50681791  0.09469030  0.63127483    -0.92900
O43         O  0.49059556  0.09627870  0.70407702    -0.91700
C44         C  0.54037146  0.16418634  0.68087938     1.17400
H45         H  0.55704272  0.07680894  0.61585259     0.33300
H46         H  0.52714138  0.08409323  0.76175807     0.44100
H47         H  0.60010424  0.14629000  0.70900411     0.37700
H48         H  0.62044281  0.05060568  0.73322158     0.34200
H49         H  0.48576496  0.04631690  0.69362777     0.25900
H50         H  0.59302667  0.03534458  0.83340647     0.31900
H51         H  0.66107780  0.10045767  0.78816745     0.37800
H52         H  0.49247408  0.08419007  0.62656881     0.32200
H53         H  0.54099181  0.12795131  0.59395169     0.31100
H54         H  0.59880866  0.16024459  0.60828346     0.32800
H55         H  0.64607134  0.14470936  0.70111916     0.31800
H56         H  0.49542047  0.10642976  0.72600048     0.35800
H57         H  0.54251158  0.16835874  0.78494511     0.28500
H58         H  0.60649437  0.00633069  0.62750790     0.32700
H59         H  0.67533311  0.08997967  0.72117164     0.35600
H60         H  0.56506929  0.13690165  0.57472466     0.28200
H61         H  0.51945408  0.15189132  0.77846958     0.41100
H62         H  0.52736285  0.03401484  0.78426351     0.31100
H63         H  0.50755440  0.03157406  0.71129021     0.38700
H64         H  0.64658364  0.12553803  0.66827237     0.30600
H65         H  0.61410110  0.05052134  0.81527289     0.30700
H66         H  0.63089515  0.01945088  0.63894993     0.30900
Zr67       Zr  0.40822481  0.92317882  0.37266140     2.17500
O68         O  0.38285555  0.95403444  0.40376866    -0.51400
O69         O  0.43669583  0.94355214  0.41784629    -0.74600
O70         O  0.38177849  0.90605107  0.42264764    -0.81400
O71         O  0.41797800  0.96297378  0.28487924    -0.83200
O72         O  0.39286769  0.86657476  0.43287083    -0.78800
O73         O  0.39349711  0.95893895  0.33636137    -0.90400
O74         O  0.47529408  0.92966366  0.40718521    -0.76400
O75         O  0.43696396  0.89340481  0.39453601    -0.85900
O76         O  0.44518785  0.92954725  0.33803417    -0.85600
O77         O  0.39001021  0.88393893  0.35832811    -0.72300
O78         O  0.39860820  0.91740758  0.30644450    -0.84500
Zr79       Zr  0.44539960  0.85509977  0.28217110     2.26400
Zr80       Zr  0.41930282  0.85434868  0.38092959     2.06300
Zr81       Zr  0.43608254  0.92323590  0.27244245     2.10000
Zr82       Zr  0.47347960  0.89943520  0.35886608     1.78800
O83         O  0.41490947  0.93476900  0.21465577    -0.93300
O84         O  0.49358548  0.87932155  0.41176570    -0.41100
O85         O  0.46471879  0.89338261  0.29367649    -0.77700
O86         O  0.45636066  0.86079787  0.34693923    -0.96400
O87         O  0.40873559  0.84836169  0.31606474    -0.89700
O88         O  0.41756276  0.88482397  0.25834989    -0.92500
C89         C  0.45995571  0.94317002  0.42468476     1.01200
C90         C  0.40136278  0.97082596  0.30750427     1.14100
C91         C  0.37985885  0.88559153  0.44018366     1.04900
O92         O  0.43915994  0.84328529  0.43999004    -0.94700
O93         O  0.44203344  0.81588150  0.37128897    -0.90400
O94         O  0.45516050  0.81653952  0.31035394    -0.83600
C95         C  0.45354897  0.80661226  0.34284278     1.11600
O96         O  0.34523160  0.90461127  0.30127643    -0.96700
Zr97       Zr  0.38095145  0.87825304  0.29283401     1.88900
O98         O  0.41876754  0.82838929  0.24690008    -0.73300
O99         O  0.38888899  0.82232881  0.38628255    -0.52600
O100        O  0.34692283  0.85614554  0.32041938    -0.97300
O101        O  0.36329672  0.88788577  0.23132661    -0.54500
O102        O  0.37938841  0.84006666  0.25710150    -0.73800
C103        C  0.39562456  0.82552706  0.24331743     0.98500
O104        O  0.48307152  0.83361387  0.26500418    -0.62700
O105        O  0.46693464  0.95453817  0.26402481    -0.57500
O106        O  0.46130411  0.86754322  0.22190354    -0.94100
O107        O  0.46448238  0.90878406  0.22312858    -0.92600
O108        O  0.50248619  0.92856575  0.33370080    -0.92900
O109        O  0.51232444  0.87964322  0.34378270    -0.91700
C110        C  0.46937062  0.88764520  0.20895523     1.17400
H111        H  0.45140966  0.94576124  0.34220262     0.33300
H112        H  0.46908339  0.84961695  0.35455010     0.44100
H113        H  0.41502576  0.88276001  0.23155124     0.37700
H114        H  0.37421123  0.88168848  0.36974176     0.34200
H115        H  0.50674281  0.89056834  0.41963848     0.25900
H116        H  0.37294688  0.83101428  0.38637916     0.31900
H117        H  0.35302470  0.83922652  0.32308264     0.37800
H118        H  0.51122461  0.93504976  0.35604150     0.32200
H119        H  0.48278703  0.94592748  0.26709384     0.31100
H120        H  0.42618149  0.94612345  0.20196729     0.32800
H121        H  0.37280222  0.87824352  0.21266694     0.31800
H122        H  0.50809729  0.86670010  0.32538433     0.35800
H123        H  0.47980142  0.82583625  0.24025106     0.28500
H124        H  0.38677962  0.95290643  0.43100495     0.32700
H125        H  0.33197029  0.89701236  0.28634228     0.35600
H126        H  0.46618819  0.95865921  0.23687948     0.28200
H127        H  0.49529359  0.84639212  0.25983789     0.41100
H128        H  0.43127724  0.82787219  0.44746763     0.31100
H129        H  0.48150861  0.88017015  0.43253645     0.38700
H130        H  0.36806369  0.90495596  0.22670966     0.30600
H131        H  0.38933037  0.81367203  0.36170619     0.30700
H132        H  0.36580309  0.94822146  0.40150033     0.30900
Zr133      Zr  0.69017333  0.82941721  0.90855092     2.17500
O134        O  0.71751356  0.85553996  0.87278907    -0.51400
O135        O  0.71202074  0.79980241  0.86715389    -0.74600
O136        O  0.72727826  0.84007080  0.94463530    -0.81400
O137        O  0.63486510  0.84873145  0.84690684    -0.83200
O138        O  0.72437523  0.82582809  0.00473251    -0.78800
O139        O  0.67383106  0.85920730  0.86264463    -0.90400
O140        O  0.70248341  0.76175344  0.88651641    -0.76400
O141        O  0.69458712  0.79421073  0.94737372    -0.85900
O142        O  0.66159711  0.80051859  0.88402408    -0.85600
O143        O  0.68076896  0.84255983  0.97241237    -0.72300
O144        O  0.65010692  0.84708164  0.91599604    -0.84500
Zr145      Zr  0.61784661  0.79633906  0.99338252     2.26400
Zr146      Zr  0.68477455  0.80666193  0.01088959     2.06300
Zr147      Zr  0.62161411  0.81812780  0.89179688     2.10000
Zr148      Zr  0.66584701  0.76556496  0.92320401     1.78800
O149        O  0.58705803  0.84453772  0.87629815    -0.93300
O150        O  0.68920241  0.73350694  0.95459752    -0.41100
O151        O  0.62579429  0.78266241  0.93011514    -0.77700
O152        O  0.65698325  0.77690548  0.98678434    -0.96400
O153        O  0.64534802  0.82544569  0.01810147    -0.89700
O154        O  0.61222863  0.83123400  0.95484513    -0.92500
C155        C  0.71450178  0.77639735  0.86596092     1.01200
C156        C  0.65388351  0.86216913  0.84352403     1.14100
C157        C  0.73561137  0.83701491  0.97833327     1.04900
O158        O  0.71679291  0.77742710  0.02687456    -0.94700
O159        O  0.67006312  0.78119948  0.06302227    -0.90400
O160        O  0.62915154  0.77785212  0.05277413    -0.83600
C161        C  0.64861296  0.77353189  0.07191466     1.11600
O162        O  0.66022367  0.89813595  0.96166304    -0.96700
Zr163      Zr  0.64060366  0.86011889  0.97878503     1.88900
O164        O  0.59230727  0.82467020  0.02838497    -0.73300
O165        O  0.68946156  0.83033547  0.06886531    -0.52600
O166        O  0.65836102  0.88031778  0.03362347    -0.97300
O167        O  0.61374354  0.89009966  0.94912423    -0.54500
O168        O  0.60603102  0.86327919  0.02213352    -0.73800
C169        C  0.59106647  0.84757521  0.03524148     0.98500
O170        O  0.59438222  0.76389101  0.02281076    -0.62700
O171        O  0.61790255  0.79610045  0.83222229    -0.57500
O172        O  0.58073043  0.78698357  0.96042577    -0.94100
O173        O  0.58304170  0.79630357  0.89822671    -0.92600
O174        O  0.65374380  0.74653708  0.86370579    -0.92900
O175        O  0.64172943  0.72889770  0.93169940    -0.91700
C176        C  0.57196470  0.78759028  0.92700799     1.17400
H177        H  0.66475626  0.79690285  0.85776965     0.33300
H178        H  0.65776216  0.76205650  0.00115220     0.44100
H179        H  0.59563557  0.83737982  0.95604925     0.37700
H180        H  0.69166025  0.85521259  0.98081830     0.34200
H181        H  0.70090663  0.72721928  0.93553191     0.25900
H182        H  0.69779244  0.84542705  0.06107958     0.31900
H183        H  0.64429431  0.88721249  0.04775397     0.37800
H184        H  0.66444791  0.75351121  0.84408432     0.32200
H185        H  0.61836233  0.77871200  0.83940049     0.31100
H186        H  0.58103141  0.83841767  0.85167101     0.32800
H187        H  0.59742479  0.88761109  0.96048182     0.31800
H188        H  0.63889371  0.72792789  0.95924180     0.35800
H189        H  0.57804410  0.77098166  0.02835866     0.28500
H190        H  0.73323925  0.84652458  0.87120080     0.32700
H191        H  0.66820528  0.89459808  0.93714308     0.35600
H192        H  0.60080062  0.79898412  0.82400963     0.28200
H193        H  0.59154366  0.75152741  0.00287019     0.41100
H194        H  0.72413443  0.78386335  0.05043374     0.31100
H195        H  0.69949468  0.74217447  0.97325124     0.38700
H196        H  0.61195448  0.88428135  0.92277288     0.30600
H197        H  0.67273947  0.83574948  0.07587107     0.30700
H198        H  0.72089964  0.86971237  0.88935714     0.30900
Zr199      Zr  0.81862328  0.64405571  0.61882511     2.17500
O200        O  0.79201495  0.61077073  0.63773633    -0.51400
O201        O  0.79834843  0.67108992  0.66601797    -0.74600
O202        O  0.83464166  0.62010414  0.67238517    -0.81400
O203        O  0.78320586  0.64518240  0.52406369    -0.83200
O204        O  0.87469192  0.62936619  0.68236053    -0.78800
O205        O  0.78001437  0.63461415  0.58607301    -0.90400
O206        O  0.81079698  0.70956088  0.65359669    -0.76400
O207        O  0.84653747  0.67398352  0.64147137    -0.85900
O208        O  0.81151870  0.67935474  0.58079924    -0.85600
O209        O  0.85889538  0.62672462  0.60780452    -0.72300
O210        O  0.82663099  0.63300098  0.55378160    -0.84500
Zr211      Zr  0.88810419  0.68009874  0.53144430     2.26400
Zr212      Zr  0.88673151  0.65702466  0.63190480     2.06300
Zr213      Zr  0.82038939  0.66882034  0.51618244     2.10000
Zr214      Zr  0.83971175  0.70891035  0.60291175     1.78800
O215        O  0.81007174  0.64984906  0.45594535    -0.93300
O216        O  0.85792558  0.73327744  0.65325604    -0.41100
O217        O  0.84849501  0.69824942  0.53904590    -0.77700
O218        O  0.88004658  0.69297821  0.59499550    -0.96400
O219        O  0.89493055  0.64469568  0.56802847    -0.89700
O220        O  0.86025590  0.65127297  0.50629005    -0.92500
C221        C  0.79848628  0.69426402  0.67258388     1.01200
C222        C  0.77186890  0.63550668  0.55192096     1.14100
C223        C  0.85518594  0.61739459  0.68994878     1.04900
O224        O  0.89267692  0.67891969  0.69116370    -0.94700
O225        O  0.92500458  0.68007495  0.62507550    -0.90400
O226        O  0.92614977  0.68918628  0.56270831    -0.83600
C227        C  0.93530156  0.68950284  0.59598284     1.11600
O228        O  0.84585010  0.57787899  0.55763923    -0.96700
Zr229      Zr  0.86656307  0.61592383  0.54341667     1.88900
O230        O  0.91513144  0.65314939  0.49610324    -0.73300
O231        O  0.92133064  0.62966867  0.64232845    -0.52600
O232        O  0.89376567  0.58428431  0.56762877    -0.97300
O233        O  0.84937520  0.59832637  0.48595826    -0.54500
O234        O  0.90286125  0.61409134  0.50357191    -0.73800
C235        C  0.91754102  0.63015803  0.49066447     0.98500
O236        O  0.90821359  0.71613200  0.50653187    -0.62700
O237        O  0.78785840  0.69912009  0.51068994    -0.57500
O238        O  0.87590618  0.69868632  0.47282179    -0.94100
O239        O  0.83465748  0.69629499  0.46547707    -0.92600
O240        O  0.80682179  0.73518317  0.57988770    -0.92900
O241        O  0.85493741  0.74792412  0.58100144    -0.91700
C242        C  0.85600035  0.70378430  0.45528258     1.17400
H243        H  0.79482251  0.68498412  0.58356044     0.33300
H244        H  0.89085107  0.70600823  0.60222107     0.44100
H245        H  0.86345787  0.64825000  0.47988075     0.37700
H246        H  0.86119701  0.61132830  0.62027874     0.34200
H247        H  0.85666352  0.72304830  0.67607245     0.25900
H248        H  0.92511415  0.63134848  0.66955410     0.31900
H249        H  0.90824079  0.59315123  0.57713634     0.37800
H250        H  0.79178766  0.72960190  0.59263955     0.32200
H251        H  0.79640480  0.71494964  0.51109673     0.31100
H252        H  0.82574154  0.64847712  0.44208849     0.32800
H253        H  0.85958619  0.60455799  0.46515098     0.31800
H254        H  0.85485779  0.74664717  0.55311273     0.35800
H255        H  0.91090103  0.72709528  0.52841533     0.28500
H256        H  0.78861618  0.61337482  0.66489488     0.32700
H257        H  0.85280694  0.56562137  0.53999492     0.35600
H258        H  0.78191562  0.69738443  0.48441882     0.28200
H259        H  0.92475443  0.71071495  0.49858888     0.41100
H260        H  0.87745046  0.67631881  0.70565105     0.31100
H261        H  0.87567534  0.73369441  0.64779493     0.38700
H262        H  0.83335677  0.60662323  0.48278932     0.30600
H263        H  0.91444511  0.61312666  0.63974330     0.30700
H264        H  0.80223954  0.59580677  0.63649265     0.30900
Zr265      Zr  0.09628389  0.05445462  0.87000845     2.17500
O266        O  0.12594011  0.02554841  0.89596434    -0.51400
O267        O  0.06786275  0.03353443  0.91412219    -0.74600
O268        O  0.12179567  0.07097627  0.92262658    -0.81400
O269        O  0.09259874  0.01808065  0.77574119    -0.83200
O270        O  0.11093284  0.11062137  0.93196187    -0.78800
O271        O  0.10836004  0.01728807  0.83539189    -0.90400
O272        O  0.02901856  0.04309197  0.89673256    -0.76400
O273        O  0.06640437  0.08288746  0.89226060    -0.85900
O274        O  0.06051110  0.04778180  0.83205902    -0.85600
O275        O  0.11373364  0.09403351  0.85749427    -0.72300
O276        O  0.10669404  0.06187279  0.80450122    -0.84500
Zr277      Zr  0.05939029  0.12388275  0.78153592     2.26400
Zr278      Zr  0.08352052  0.12240320  0.88114490     2.06300
Zr279      Zr  0.07036861  0.05611662  0.76719203     2.10000
Zr280      Zr  0.03096516  0.07644933  0.85390318     1.78800
O281        O  0.09226236  0.04797685  0.70862296    -0.93300
O282        O  0.01054880  0.09223730  0.91011725    -0.41100
O283        O  0.04095522  0.08484136  0.78987547    -0.77700
O284        O  0.04692336  0.11613200  0.84521843    -0.96400
O285        O  0.09538732  0.13036666  0.81719149    -0.89700
O286        O  0.08790596  0.09538615  0.75616254    -0.92500
C287        C  0.04437801  0.03146789  0.91708498     1.01200
C288        C  0.10501433  0.00803976  0.80228636     1.14100
C289        C  0.12385624  0.09170151  0.93983225     1.04900
O290        O  0.06073397  0.12924538  0.93924464    -0.94700
O291        O  0.06105407  0.16102170  0.87519669    -0.90400
O292        O  0.04700979  0.16016785  0.81489040    -0.83600
C293        C  0.04872016  0.16997882  0.84755742     1.11600
O294        O  0.16196876  0.07927148  0.80476751    -0.96700
Zr295      Zr  0.12388502  0.10129661  0.79276326     1.88900
O296        O  0.08657432  0.15053313  0.74713439    -0.73300
O297        O  0.11226206  0.15552639  0.89100996    -0.52600
O298        O  0.15558563  0.12702872  0.81980339    -0.97300
O299        O  0.14211799  0.08524594  0.73486239    -0.54500
O300        O  0.12587136  0.13766061  0.75310242    -0.73800
C301        C  0.10956081  0.15266847  0.74093218     0.98500
O302        O  0.02741357  0.14731488  0.74949990    -0.62700
O303        O  0.04061199  0.02435713  0.75352314    -0.57500
O304        O  0.03835371  0.11061207  0.72584460    -0.94100
O305        O  0.04122431  0.06960137  0.71810873    -0.92600
O306        O  0.00194631  0.04830838  0.82551273    -0.92900
O307        O  0.99156624  0.09566660  0.84061630    -0.91700
C308        C  0.03303923  0.09081247  0.70874872     1.17400
H309        H  0.05482994  0.03127318  0.83486467     0.33300
H310        H  0.03376815  0.12665208  0.85353974     0.44100
H311        H  0.09053089  0.09824201  0.72960777     0.37700
H312        H  0.12928880  0.09630555  0.86979399     0.34200
H313        H  0.99717962  0.08061435  0.91509770     0.25900
H314        H  0.11161023  0.15906442  0.91841904     0.31900
H315        H  0.16796045  0.12856899  0.79958800     0.37800
H316        H  0.00284094  0.05151244  0.79808363     0.32200
H317        H  0.05008616  0.01109782  0.74121607     0.31100
H318        H  0.10968606  0.04687210  0.71617095     0.32800
H319        H  0.15810708  0.09350937  0.73295675     0.31800
H320        H  0.99537828  0.10911120  0.82312888     0.35800
H321        H  0.01383720  0.14913559  0.76781091     0.28500
H322        H  0.12234264  0.02450713  0.92328675     0.32700
H323        H  0.15872914  0.06969433  0.82779278     0.35600
H324        H  0.03589329  0.01766745  0.77830823     0.28200
H325        H  0.03398500  0.16392482  0.74619589     0.41100
H326        H  0.06768620  0.14434992  0.95005770     0.31100
H327        H  0.02235873  0.08951466  0.93091458     0.38700
H328        H  0.13230792  0.09229549  0.71406297     0.30600
H329        H  0.12860491  0.14805122  0.88696318     0.30700
H330        H  0.14210928  0.03350706  0.89433431     0.30900
Zr331      Zr  0.91091262  0.92675934  0.15769687     2.17500
O332        O  0.88574361  0.95367838  0.11877552    -0.51400
O333        O  0.94083542  0.94665421  0.11434933    -0.74600
O334        O  0.89816092  0.96434699  0.19084186    -0.81400
O335        O  0.89234960  0.86938871  0.10135214    -0.83200
O336        O  0.91357415  0.96430293  0.25060074    -0.78800
O337        O  0.88092471  0.90859648  0.11338190    -0.90400
O338        O  0.97922819  0.93620998  0.13291815    -0.76400
O339        O  0.94528931  0.93316917  0.19826828    -0.85900
O340        O  0.94141975  0.89824855  0.13685325    -0.85600
O341        O  0.89711895  0.91874043  0.22176904    -0.72300
O342        O  0.89431209  0.88686818  0.16765625    -0.84500
Zr343      Zr  0.94459141  0.85688505  0.24835328     2.26400
Zr344      Zr  0.93238375  0.92462017  0.26168802     2.06300
Zr345      Zr  0.92448675  0.85850407  0.14579270     2.10000
Zr346      Zr  0.97542760  0.90434300  0.17824303     1.78800
O347        O  0.90063577  0.82255193  0.13014932    -0.93300
O348        O  0.00228797  0.93459040  0.20670854    -0.41100
O349        O  0.95917404  0.86443932  0.18584074    -0.77700
O350        O  0.96302237  0.89616783  0.24124119    -0.96400
O351        O  0.91478403  0.88513330  0.27053797    -0.89700
O352        O  0.91044317  0.84997402  0.20842844    -0.92500
C353        C  0.96443591  0.94803555  0.11186652     1.01200
C354        C  0.87832341  0.88794045  0.09624088     1.14100
C355        C  0.90157189  0.97419856  0.22345990     1.04900
O356        O  0.96283248  0.95511104  0.27793380    -0.94700
O357        O  0.95702397  0.91060231  0.31595331    -0.90400
O358        O  0.96019399  0.86952153  0.30877503    -0.83600
C359        C  0.96433669  0.88934333  0.32667859     1.11600
O360        O  0.84257835  0.89998602  0.21539327    -0.96700
Zr361      Zr  0.88060356  0.87852800  0.23044800     1.88900
O362        O  0.91635827  0.82927956  0.27954065    -0.73300
O363        O  0.90709578  0.93436271  0.31636429    -0.52600
O364        O  0.86281736  0.89221091  0.28997722    -0.97300
O365        O  0.85031369  0.85273608  0.19975309    -0.54500
O366        O  0.87736906  0.84259981  0.27091975    -0.73800
C367        C  0.89316646  0.82755890  0.28458455     0.98500
O368        O  0.97626860  0.83486405  0.28332018    -0.62700
O369        O  0.94611377  0.85532516  0.08577478    -0.57500
O370        O  0.96201779  0.82293645  0.21424053    -0.94100
O371        O  0.94907430  0.82145330  0.15341386    -0.92600
O372        O  0.99825709  0.88603642  0.12627183    -0.92900
O373        O  0.01461723  0.88739604  0.19831348    -0.91700
C374        C  0.96138457  0.81310883  0.18148734     1.17400
H375        H  0.94574755  0.90053228  0.11070792     0.33300
H376        H  0.97767347  0.89736147  0.25636651     0.44100
H377        H  0.90479557  0.83338079  0.20957057     0.37700
H378        H  0.88409354  0.92975864  0.22898239     0.34200
H379        H  0.01396377  0.93894694  0.18654220     0.25900
H380        H  0.89115261  0.93967722  0.30581079     0.31900
H381        H  0.86019062  0.90994144  0.28693058     0.37800
H382        H  0.99043589  0.87005306  0.12202100     0.32200
H383        H  0.94994670  0.83777948  0.08270365     0.31100
H384        H  0.88509665  0.82469618  0.14412250     0.32800
H385        H  0.83746376  0.85032621  0.21901059     0.31800
H386        H  0.01098256  0.87030776  0.20491720     0.35800
H387        H  0.97159020  0.81747961  0.28292976     0.36500
H388        H  0.89405431  0.96963804  0.11896976     0.32700
H389        H  0.83061480  0.89489168  0.23470330     0.35600
H390        H  0.93359540  0.85867621  0.06622128     0.28200
H391        H  0.99127151  0.83580094  0.26775669     0.41100
H392        H  0.95396046  0.96726016  0.29360681     0.31100
H393        H  0.99192693  0.94931473  0.20997368     0.38700
H394        H  0.85836554  0.83659390  0.19745452     0.30600
H395        H  0.90371231  0.91845829  0.32819085     0.30700
H396        H  0.87038844  0.95639695  0.13306544     0.30900
Zr397      Zr  0.18830451  0.83236527  0.62188809     2.17500
O398        O  0.22014059  0.85837474  0.64822768    -0.51400
O399        O  0.20811723  0.80374227  0.66716942    -0.74600
O400        O  0.17266747  0.85995070  0.67221012    -0.81400
O401        O  0.22489775  0.82540614  0.52777830    -0.83200
O402        O  0.13303828  0.85010530  0.68405812    -0.78800
O403        O  0.22531195  0.84343384  0.58584258    -0.90400
O404        O  0.19483295  0.76562456  0.65381692    -0.76400
O405        O  0.15835191  0.80473776  0.64497822    -0.85900
O406        O  0.19339788  0.79540482  0.58660482    -0.85600
O407        O  0.14905868  0.85163177  0.60855864    -0.72300
O408        O  0.18143250  0.84201046  0.55620192    -0.84500
Zr409      Zr  0.11742659  0.79716244  0.53437197     2.26400
Zr410      Zr  0.11935040  0.82362714  0.63314320     2.06300
Zr411      Zr  0.18610803  0.80472061  0.52144256     2.10000
Zr412      Zr  0.16292567  0.76823625  0.60857151     1.78800
O413        O  0.19471638  0.82400165  0.46126421    -0.93300
O414        O  0.14587760  0.74853786  0.66398049    -0.41100
O415        O  0.15600617  0.77735428  0.54410010    -0.77700
O416        O  0.12382554  0.78614811  0.59894968    -0.96400
O417        O  0.11211028  0.83414073  0.56839778    -0.89700
O418        O  0.14728101  0.82361961  0.50875449    -0.92500
C419        C  0.20803007  0.78046528  0.67241327     1.01200
C420        C  0.23485212  0.83869446  0.55328845     1.14100
C421        C  0.15237643  0.86261461  0.69048192     1.04900
O422        O  0.11132472  0.80330049  0.69268635    -0.94700
O423        O  0.07964970  0.80333255  0.62639129    -0.90400
O424        O  0.07843639  0.79128356  0.56494232    -0.83600
C425        C  0.06908380  0.79316998  0.59795043     1.11600
O426        O  0.16649893  0.89715935  0.55141059    -0.96700
Zr427      Zr  0.14228479  0.86046346  0.54318371     1.88900
O428        O  0.09270485  0.82381644  0.49573291    -0.73300
O429        O  0.08750974  0.85437361  0.64228829    -0.52600
O430        O  0.11857919  0.89462192  0.56820575    -0.97300
O431        O  0.15823743  0.87602458  0.48388469    -0.54500
O432        O  0.10583189  0.86265222  0.50282110    -0.73800
C433        C  0.09107103  0.84669743  0.48931653     0.98500
O434        O  0.09557987  0.76136821  0.51150360    -0.62700
O435        O  0.21804017  0.77402571  0.51185759    -0.57500
O436        O  0.12992948  0.77683483  0.47699420    -0.94100
O437        O  0.17154556  0.77543773  0.47445583    -0.92600
O438        O  0.19093060  0.73786004  0.58247930    -0.92900
O439        O  0.14123514  0.73089486  0.59301188    -0.91700
C440        C  0.15016454  0.76947334  0.46252423     1.17400
H441        H  0.20964346  0.78875919  0.59021574     0.33300
H442        H  0.11227767  0.77405545  0.60702348     0.44100
H443        H  0.14475155  0.82592053  0.48201824     0.37700
H444        H  0.14721708  0.86748185  0.62004515     0.34200
H445        H  0.15705832  0.73466631  0.66914968     0.25900
H446        H  0.08372932  0.85389807  0.66959693     0.31900
H447        H  0.11453213  0.90466274  0.54588770     0.37800
H448        H  0.19201952  0.72507715  0.60202417     0.32200
H449        H  0.22796680  0.78026978  0.49071473     0.31100
H450        H  0.20469579  0.81187663  0.44722037     0.32800
H451        H  0.14747225  0.86931557  0.46395225     0.31800
H452        H  0.14027351  0.73069332  0.56509829     0.35800
H453        H  0.09222131  0.75137419  0.53406783     0.28500
H454        H  0.22007829  0.85533332  0.67574235     0.32700
H455        H  0.17360294  0.89572564  0.57703907     0.35600
H456        H  0.22894032  0.77524388  0.53410966     0.28200
H457        H  0.07936460  0.76732723  0.50289390     0.41100
H458        H  0.09542629  0.81008521  0.70125522     0.31100
H459        H  0.14878321  0.76010194  0.68501937     0.38700
H460        H  0.17406425  0.86743255  0.48036063     0.30600
H461        H  0.09591077  0.87009667  0.63869419     0.30700
H462        H  0.21397723  0.87527788  0.64541214     0.30900
Zr463      Zr  0.31718102  0.64741968  0.90872648     2.17500
O464        O  0.28860300  0.62482787  0.86904019    -0.51400
O465        O  0.29689346  0.67774087  0.86652891    -0.74600
O466        O  0.28018071  0.63509099  0.94345873    -0.81400
O467        O  0.37404553  0.62880926  0.85083058    -0.83200
O468        O  0.28070687  0.65166575  0.00260841    -0.78800
O469        O  0.33460742  0.61800025  0.86190393    -0.90400
O470        O  0.30824882  0.71566313  0.88464621    -0.76400
O471        O  0.31159512  0.68230808  0.94870938    -0.85900
O472        O  0.34627717  0.67674229  0.88815584    -0.85600
O473        O  0.32550641  0.63429858  0.97305297    -0.72300
O474        O  0.35685852  0.62924977  0.91854273    -0.84500
Zr475      Zr  0.38802830  0.68056949  0.99945073     2.26400
Zr476      Zr  0.32031483  0.66996434  0.01243182     2.06300
Zr477      Zr  0.38580912  0.65861972  0.89757535     2.10000
Zr478      Zr  0.34088818  0.71133974  0.92855450     1.78800
O479        O  0.42112228  0.63174564  0.88866808    -0.93300
O480        O  0.31207516  0.73950913  0.95838392    -0.41100
O481        O  0.38045937  0.69391971  0.93637230    -0.77700
O482        O  0.34883623  0.69990113  0.99206454    -0.96400
O483        O  0.35969565  0.65142385  0.02171616    -0.89700
O484        O  0.39451365  0.64569596  0.96067326    -0.92500
C485        C  0.29595962  0.70120677  0.86394166     1.01200
C486        C  0.35534870  0.61542660  0.84463969     1.14100
C487        C  0.27067686  0.63922474  0.97616762     1.04900
O488        O  0.28954307  0.70089226  0.02699203    -0.94700
O489        O  0.33453586  0.69424711  0.06663853    -0.90400
O490        O  0.37564755  0.69785597  0.05933242    -0.83600
C491        C  0.35572850  0.70163569  0.07746943     1.11600
O492        O  0.34547548  0.57794778  0.97012289    -0.96700
Zr493      Zr  0.36548932  0.61680060  0.98198071     1.88900
O494        O  0.41492073  0.65214101  0.03149966    -0.73300
O495        O  0.30979202  0.64584839  0.06758798    -0.52600
O496        O  0.34925996  0.59789317  0.03867496    -0.97300
O497        O  0.39206533  0.58748275  0.94979304    -0.54500
O498        O  0.40077117  0.61368028  0.02387502    -0.73800
C499        C  0.41602008  0.62915760  0.03723844     0.98500
O500        O  0.41233923  0.71028679  0.03440557    -0.62700
O501        O  0.39142665  0.67607988  0.83519513    -0.57500
O502        O  0.42140347  0.69706151  0.96332992    -0.94100
O503        O  0.42164802  0.68440654  0.90224099    -0.92600
O504        O  0.35772996  0.73305820  0.87483117    -0.92900
O505        O  0.36113770  0.74931987  0.94480698    -0.91700
C506        C  0.43046087  0.69653935  0.93004718     1.17400
H507        H  0.34404591  0.68075363  0.86186235     0.33300
H508        H  0.34769338  0.71466607  0.00688061     0.44100
H509        H  0.41113102  0.63971076  0.96229236     0.37700
H510        H  0.31462085  0.62154154  0.98081110     0.34200
H511        H  0.30774683  0.75135272  0.93844196     0.25900
H512        H  0.32413216  0.63510748  0.07180191     0.31900
H513        H  0.35978240  0.60371910  0.05957120     0.37800
H514        H  0.35154617  0.72447289  0.85214506     0.32200
H515        H  0.39360785  0.69372130  0.83980853     0.31100
H516        H  0.43444293  0.63870597  0.90422002     0.32800
H517        H  0.40749023  0.59628974  0.94513474     0.31800
H518        H  0.37720023  0.74425024  0.95524298     0.35800
H519        H  0.42958753  0.70474812  0.03251280     0.28500
H520        H  0.27279367  0.63370582  0.87084247     0.32700
H521        H  0.35523326  0.56564939  0.98405322     0.35600
H522        H  0.40775115  0.67015858  0.82699949     0.28200
H523        H  0.41144381  0.72551678  0.01960413     0.41100
H524        H  0.28534713  0.69819325  0.05381491     0.31100
H525        H  0.29699223  0.72993894  0.96203019     0.38700
H526        H  0.38472654  0.58541429  0.92441320     0.30600
H527        H  0.30995567  0.65731611  0.08923998     0.30700
H528        H  0.28584825  0.60923029  0.88218694     0.30900
Zr529      Zr  0.18638738  0.33013008  0.40830876     2.17500
O530        O  0.21443763  0.35398805  0.37007826    -0.51400
O531        O  0.20693649  0.30039377  0.36558786    -0.74600
O532        O  0.22378070  0.34220758  0.44343855    -0.81400
O533        O  0.12997356  0.34564475  0.34687092    -0.83200
O534        O  0.22163814  0.32932139  0.50434958    -0.78800
O535        O  0.16788171  0.35926653  0.36272141    -0.90400
O536        O  0.19810846  0.26242042  0.38610421    -0.76400
O537        O  0.19245047  0.29633264  0.44962920    -0.85900
O538        O  0.15892312  0.29918008  0.38684249    -0.85600
O539        O  0.17668619  0.34456684  0.47152109    -0.72300
O540        O  0.14562317  0.34624167  0.41535149    -0.84500
Zr541      Zr  0.11520304  0.29660942  0.49641651     2.26400
Zr542      Zr  0.18229375  0.30997795  0.51223191     2.06300
Zr543      Zr  0.11836129  0.31546096  0.39330897     2.10000
Zr544      Zr  0.16464892  0.26580627  0.42883915     1.78800
O545        O  0.08336721  0.34005523  0.37366447    -0.93300
O546        O  0.19501830  0.23804490  0.45561700    -0.41100
O547        O  0.12393143  0.28146600  0.43427387    -0.77700
O548        O  0.15520759  0.27880769  0.49118946    -0.96400
O549        O  0.14213995  0.32725206  0.51875025    -0.89700
O550        O  0.10840931  0.32999600  0.45534327    -0.92500
C551        C  0.20927928  0.27699756  0.36437322     1.01200
C552        C  0.14779312  0.36059968  0.34339246     1.14100
C553        C  0.23252847  0.34004205  0.47714827     1.04900
O554        O  0.21374272  0.28044564  0.52964114    -0.94700
O555        O  0.16771004  0.28554555  0.56549600    -0.90400
O556        O  0.12637109  0.28270769  0.55893353    -0.83600
C557        C  0.14647201  0.27847688  0.57654502     1.11600
O558        O  0.15603217  0.39800976  0.45867435    -0.96700
Zr559      Zr  0.13567256  0.36058151  0.47728212     1.88900
O560        O  0.08730371  0.32446585  0.52838053    -0.73300
O561        O  0.18963602  0.33614968  0.56671068    -0.52600
O562        O  0.14832099  0.38328717  0.53315831    -0.97300
O563        O  0.10810255  0.38837180  0.44421294    -0.54500
O564        O  0.10018132  0.36319529  0.51913030    -0.73800
C565        C  0.08543872  0.34756965  0.53323104     0.98500
O566        O  0.09598913  0.26100243  0.52429712    -0.62700
O567        O  0.11743831  0.29050324  0.33625450    -0.57500
O568        O  0.07884590  0.28399960  0.46326261    -0.94100
O569        O  0.08010065  0.29312803  0.40083977    -0.92600
O570        O  0.14865679  0.24344225  0.37475236    -0.92900
O571        O  0.14675644  0.22778545  0.45014707    -0.91700
C572        C  0.06987421  0.28369340  0.42988604     1.17400
H573        H  0.16179982  0.29459860  0.36088745     0.33300
H574        H  0.15643058  0.26444218  0.50666254     0.44100
H575        H  0.09156326  0.33545246  0.45601099     0.37700
H576        H  0.18732268  0.35768046  0.47891637     0.34200
H577        H  0.21068162  0.24696305  0.45450545     0.25900
H578        H  0.17392681  0.33644824  0.58057639     0.31900
H579        H  0.16642569  0.38250749  0.53290632     0.37800
H580        H  0.15989008  0.22933376  0.37171389     0.32200
H581        H  0.11239953  0.27420405  0.34501014     0.31100
H582        H  0.08053183  0.33549363  0.34695024     0.32800
H583        H  0.10060729  0.39854120  0.46432302     0.31800
H584        H  0.12923178  0.22905258  0.44321655     0.35800
H585        H  0.07865222  0.26553884  0.52872631     0.28500
H586        H  0.23026746  0.34508297  0.37065360     0.32700
H587        H  0.14725457  0.41133603  0.47200325     0.35600
H588        H  0.10315665  0.29668041  0.32189777     0.28200
H589        H  0.09561144  0.24851127  0.50403525     0.41100
H590        H  0.21902952  0.28543550  0.55526392     0.31100
H591        H  0.19114077  0.23743498  0.48286624     0.38700
H592        H  0.09457438  0.37807711  0.43487222     0.30600
H593        H  0.20086924  0.32662493  0.58299861     0.30700
H594        H  0.21736034  0.36916819  0.38454387     0.30900
Zr595      Zr  0.31644756  0.14425289  0.12302775     2.17500
O596        O  0.28736610  0.11481726  0.14766355    -0.51400
O597        O  0.29453195  0.17189071  0.16747297    -0.74600
O598        O  0.33341298  0.11798976  0.17451767    -0.81400
O599        O  0.27715853  0.15532760  0.03371570    -0.83200
O600        O  0.37338086  0.12805997  0.18279598    -0.78800
O601        O  0.27954665  0.13222656  0.08685341    -0.90400
O602        O  0.30647456  0.21057001  0.15533154    -0.76400
O603        O  0.34516448  0.17330662  0.14666589    -0.85900
O604        O  0.30995799  0.18120608  0.08831034    -0.85600
O605        O  0.35642224  0.12700299  0.10943569    -0.72300
O606        O  0.32304389  0.13540052  0.05681424    -0.84500
Zr607      Zr  0.38526051  0.18290035  0.03564707     2.26400
Zr608      Zr  0.38499762  0.15650044  0.13391248     2.06300
Zr609      Zr  0.31724729  0.17281243  0.02264015     2.10000
Zr610      Zr  0.33904106  0.20971897  0.11120064     1.78800
O611        O  0.30804343  0.14901756  0.96624411    -0.93300
O612        O  0.35645689  0.22770260  0.16821995    -0.41100
O613        O  0.34614198  0.20162404  0.04596930    -0.77700
O614        O  0.37875316  0.19362552  0.10030614    -0.96400
O615        O  0.39191203  0.14618797  0.06916518    -0.89700
O616        O  0.35654334  0.15511698  0.00995793    -0.92500
C617        C  0.29343569  0.19516102  0.17273280     1.01200
C618        C  0.26836049  0.13983392  0.05695891     1.14100
C619        C  0.35443938  0.11544298  0.19101560     1.04900
O620        O  0.39089722  0.17737993  0.19400688    -0.94700
O621        O  0.42398928  0.17798797  0.12532567    -0.90400
O622        O  0.42451383  0.19049907  0.06421591    -0.83600
C623        C  0.43427778  0.18825602  0.09692508     1.11600
O624        O  0.34050463  0.08048206  0.05115301    -0.96700
Zr625      Zr  0.36283403  0.11842730  0.04403008     1.88900
O626        O  0.41097875  0.15617389  0.99831274    -0.73300
O627        O  0.41989341  0.12924430  0.14319153    -0.52600
O628        O  0.38669891  0.08414006  0.06785102    -0.97300
O629        O  0.34968157  0.10449816  0.98172194    -0.54500
O630        O  0.40102322  0.11679242  0.00909450    -0.73800
C631        C  0.41458176  0.13319925  0.99460344     0.98500
O632        O  0.40787099  0.21953181  0.01933761    -0.62700
O633        O  0.28680154  0.20424588  0.00906448    -0.57500
O634        O  0.37263062  0.20040158  0.97636980    -0.94100
O635        O  0.33115645  0.20000949  0.97168075    -0.92600
O636        O  0.30958888  0.23948373  0.08760370    -0.92900
O637        O  0.35774807  0.24925813  0.10088128    -0.91700
C638        C  0.35254943  0.20627222  0.95998035     1.17400
H639        H  0.29344529  0.18721638  0.09179727     0.33300
H640        H  0.38999724  0.20609335  0.10822295     0.44100
H641        H  0.35911254  0.15293762  0.98321395     0.37700
H642        H  0.35884876  0.11124505  0.12070137     0.34200
H643        H  0.35385548  0.21544022  0.18815259     0.25900
H644        H  0.42732495  0.13465369  0.16730073     0.31900
H645        H  0.39637751  0.09100596  0.08895479     0.37800
H646        H  0.31104285  0.23849320  0.05979404     0.32200
H647        H  0.27505885  0.19641714  0.99158003     0.31100
H648        H  0.30089635  0.13371015  0.97571900     0.32800
H649        H  0.35401400  0.08696981  0.98089420     0.31800
H650        H  0.35879270  0.25077267  0.07310285     0.35800
H651        H  0.41493444  0.21642444  0.99402674     0.28500
H652        H  0.28624892  0.11812016  0.17510414     0.32700
H653        H  0.33722016  0.07923310  0.07854444     0.35600
H654        H  0.27757144  0.20650078  0.03285621     0.28200
H655        H  0.39538490  0.23246082  0.01555596     0.41100
H656        H  0.40006084  0.19229862  0.18776892     0.31100
H657        H  0.37438051  0.22764998  0.16419353     0.38700
H658        H  0.36112325  0.11198984  0.96361916     0.30600
H659        H  0.41282562  0.11313759  0.14885844     0.30700
H660        H  0.29547686  0.09867622  0.14546970     0.30900
Zr661      Zr  0.59796209  0.55309496  0.37195074     2.17500
O662        O  0.63014524  0.52476973  0.39141482    -0.51400
O663        O  0.57079032  0.53384720  0.41969084    -0.74600
O664        O  0.62350108  0.56925851  0.42397786    -0.81400
O665        O  0.58881225  0.51443108  0.28117497    -0.83200
O666        O  0.61288300  0.60890007  0.43448730    -0.78800
O667        O  0.60674733  0.51408042  0.33930489    -0.90400
O668        O  0.53287964  0.55033242  0.41220910    -0.76400
O669        O  0.56866935  0.58204638  0.39493457    -0.85900
O670        O  0.56155821  0.54700588  0.33553157    -0.85600
O671        O  0.61559452  0.59268118  0.35933484    -0.72300
O672        O  0.60833961  0.56016077  0.30649174    -0.84500
Zr673      Zr  0.56050207  0.62209649  0.28391184     2.26400
Zr674      Zr  0.58578459  0.62144255  0.38325598     2.06300
Zr675      Zr  0.57148545  0.55456315  0.27058686     2.10000
Zr676      Zr  0.53261041  0.57609206  0.35807955     1.78800
O677        O  0.59637556  0.54674867  0.21481957    -0.93300
O678        O  0.50954003  0.59922511  0.40507824    -0.41100
O679        O  0.54193994  0.58324750  0.29334499    -0.77700
O680        O  0.54862628  0.61579095  0.34816105    -0.96400
O681        O  0.59681454  0.62875005  0.31891030    -0.89700
O682        O  0.58907734  0.59354900  0.25887530    -0.92500
C683        C  0.54798120  0.53623537  0.42893848     1.01200
C684        C  0.60121027  0.50405090  0.30741512     1.14100
C685        C  0.62563807  0.58971346  0.44176340     1.04900
O686        O  0.56302078  0.62961674  0.44106513    -0.94700
O687        O  0.56595584  0.66120306  0.37369685    -0.90400
O688        O  0.55319136  0.66122655  0.31263961    -0.83600
C689        C  0.55572001  0.67132310  0.34501648     1.11600
O690        O  0.66461060  0.58106609  0.30945774    -0.96700
Zr691      Zr  0.62526290  0.59976672  0.29453383     1.88900
O692        O  0.58676627  0.64732768  0.24598493    -0.73300
O693        O  0.61485846  0.65409326  0.39471033    -0.52600
O694        O  0.65563443  0.62855700  0.31727217    -0.97300
O695        O  0.64461952  0.58181011  0.23897204    -0.54500
O696        O  0.62611923  0.63444582  0.25148840    -0.73800
C697        C  0.60962433  0.64893734  0.23849948     0.98500
O698        O  0.52373705  0.64190851  0.25917523    -0.62700
O699        O  0.54258336  0.52254486  0.25450478    -0.57500
O700        O  0.54351124  0.61012302  0.22440563    -0.94100
O701        O  0.54457668  0.56886387  0.21949593    -0.92600
O702        O  0.50705419  0.54146016  0.34151709    -0.92900
O703        O  0.49164726  0.58710620  0.33666310    -0.91700
C704        C  0.53825460  0.59013370  0.20774650     1.17400
H705        H  0.55557767  0.53064433  0.33869985     0.33300
H706        H  0.53613652  0.62731200  0.35573297     0.44100
H707        H  0.59175113  0.59612094  0.23225241     0.37700
H708        H  0.63121995  0.59486521  0.37145277     0.34200
H709        H  0.49801623  0.58736381  0.41599651     0.25900
H710        H  0.61080373  0.66024375  0.42028212     0.31900
H711        H  0.64616968  0.64074082  0.33199004     0.37800
H712        H  0.49649762  0.53890823  0.36381792     0.32200
H713        H  0.52635731  0.53066983  0.25368504     0.31100
H714        H  0.58458199  0.54162089  0.19514014     0.32800
H715        H  0.63522405  0.58819206  0.21721443     0.31800
H716        H  0.49417800  0.60109569  0.31964902     0.35800
H717        H  0.51338873  0.64555433  0.28143258     0.28500
H718        H  0.62721313  0.52171740  0.41852960     0.32700
H719        H  0.66041313  0.56580137  0.32261231     0.35600
H720        H  0.54622753  0.51827195  0.22789989     0.28200
H721        H  0.52908530  0.65798624  0.24985516     0.41100
H722        H  0.54855823  0.63930600  0.43316746     0.31100
H723        H  0.52144862  0.60236348  0.42556941     0.38700
H724        H  0.64042201  0.56432686  0.24003138     0.30600
H725        H  0.63094027  0.64589852  0.39769597     0.30700
H726        H  0.64560045  0.53406258  0.39051390     0.30900
Zr727      Zr  0.40998189  0.42529335  0.65721906     2.17500
O728        O  0.38704265  0.45472050  0.61946912    -0.51400
O729        O  0.44069475  0.44574126  0.61593122    -0.74600
O730        O  0.39889112  0.46232388  0.69382178    -0.81400
O731        O  0.38981847  0.36989918  0.59598777    -0.83200
O732        O  0.41803884  0.46096341  0.75091524    -0.78800
O733        O  0.37968354  0.40900692  0.61142110    -0.90400
O734        O  0.47866243  0.43102625  0.62909479    -0.76400
O735        O  0.44582199  0.42832567  0.69546322    -0.85900
O736        O  0.43818182  0.39551693  0.63340732    -0.85600
O737        O  0.39694197  0.41667342  0.72139052    -0.72300
O738        O  0.39130196  0.38611469  0.66596370    -0.84500
Zr739      Zr  0.44260607  0.35224201  0.74365976     2.26400
Zr740      Zr  0.43346813  0.41975564  0.75907187     2.06300
Zr741      Zr  0.41973667  0.35651532  0.64215184     2.10000
Zr742      Zr  0.47369893  0.39818028  0.67212985     1.78800
O743        O  0.39178481  0.32378930  0.62570199    -0.93300
O744        O  0.50453799  0.42498596  0.69910672    -0.41100
O745        O  0.45572473  0.35915498  0.68015280    -0.77700
O746        O  0.46251018  0.39055055  0.73576082    -0.96400
O747        O  0.41423257  0.38124316  0.76794780    -0.89700
O748        O  0.40717275  0.34785928  0.70531960    -0.92500
C749        C  0.46421005  0.44520186  0.61130262     1.01200
C750        C  0.37656138  0.38911525  0.59230098     1.14100
C751        C  0.40484877  0.47171232  0.72597330     1.04900
O752        O  0.46292180  0.45002095  0.77990230    -0.94700
O753        O  0.45953949  0.40425243  0.81012235    -0.90400
O754        O  0.45917282  0.36292062  0.80494677    -0.83600
C755        C  0.46555037  0.38276369  0.82135975     1.11600
O756        O  0.34052987  0.39777230  0.71488578    -0.96700
Zr757      Zr  0.37895271  0.37702939  0.72926941     1.88900
O758        O  0.41502709  0.32750464  0.78032897    -0.73300
O759        O  0.40749632  0.42549772  0.81421973    -0.52600
O760        O  0.35934377  0.39266258  0.78622166    -0.97300
O761        O  0.34882790  0.35096773  0.69867275    -0.54500
O762        O  0.37636914  0.34200591  0.77201197    -0.73800
C763        C  0.39191239  0.32689106  0.78626653     0.98500
O764        O  0.47972886  0.33199041  0.76600821    -0.62700
O765        O  0.44236512  0.35281896  0.58317932    -0.57500
O766        O  0.44818438  0.31333821  0.71276911    -0.94100
O767        O  0.43981819  0.31699018  0.65009548    -0.92600
O768        O  0.49057809  0.37826227  0.61617903    -0.92900
O769        O  0.51205500  0.37714677  0.68581170    -0.91700
C770        C  0.44738481  0.30500896  0.67894083     1.17400
H771        H  0.44181458  0.39819311  0.60710733     0.33300
H772        H  0.47758484  0.39089918  0.74996981     0.44100
H773        H  0.40066520  0.33158345  0.70665091     0.37700
H774        H  0.38463816  0.42807735  0.73007362     0.34200
H775        H  0.51665159  0.42731114  0.67871888     0.25900
H776        H  0.41411764  0.44013749  0.82692669     0.31900
H777        H  0.36858778  0.38525583  0.80736360     0.37800
H778        H  0.48975220  0.39052089  0.59583523     0.32200
H779        H  0.45605347  0.34149148  0.58880290     0.31100
H780        H  0.39876315  0.31638109  0.60252775     0.32800
H781        H  0.35310575  0.33420955  0.70658996     0.31800
H782        H  0.50716297  0.36046979  0.69292661     0.35800
H783        H  0.47441745  0.31582448  0.77495744     0.28500
H784        H  0.39640456  0.47007152  0.62095558     0.32700
H785        H  0.34135534  0.40114428  0.68748537     0.35600
H786        H  0.43145619  0.34347829  0.56621348     0.28200
H787        H  0.48951088  0.32857670  0.74305989     0.41100
H788        H  0.47891402  0.44376512  0.77082708     0.31100
H789        H  0.49624880  0.44100957  0.70164213     0.38700
H790        H  0.35309527  0.35141832  0.67153839     0.30600
H791        H  0.39152462  0.43090361  0.80388370     0.30700
H792        H  0.37179015  0.45806482  0.63368645     0.30900
Zr793      Zr  0.81068230  0.14560767  0.40916862     2.17500
O794        O  0.78452253  0.11882786  0.37184901    -0.51400
O795        O  0.79018931  0.17500406  0.36601728    -0.74600
O796        O  0.77303526  0.13360077  0.44315963    -0.81400
O797        O  0.86802888  0.12676085  0.35279216    -0.83200
O798        O  0.77447679  0.14790257  0.50362771    -0.78800
O799        O  0.82814197  0.11680982  0.36204272    -0.90400
O800        O  0.79665429  0.21301460  0.38900761    -0.76400
O801        O  0.80411809  0.18106447  0.44747917    -0.85900
O802        O  0.83916502  0.17519894  0.38702756    -0.85600
O803        O  0.81917788  0.13355598  0.47370266    -0.72300
O804        O  0.85100911  0.12884022  0.41959030    -0.84500
Zr805      Zr  0.88016813  0.18173001  0.49824390     2.26400
Zr806      Zr  0.81269077  0.16965136  0.51161827     2.06300
Zr807      Zr  0.87930725  0.15851975  0.39710605     2.10000
Zr808      Zr  0.83297531  0.21026884  0.42598624     1.78800
O809        O  0.91522196  0.13354415  0.38312764    -0.93300
O810        O  0.80848375  0.24262713  0.45469591    -0.41100
O811        O  0.87310099  0.19415258  0.43457286    -0.77700
O812        O  0.84058862  0.19998549  0.49019591    -0.96400
O813        O  0.85254880  0.15236559  0.52149434    -0.89700
O814        O  0.88769570  0.14654643  0.46065327    -0.92500
C815        C  0.78655390  0.19827188  0.36602638     1.01200
C816        C  0.84906363  0.11390316  0.34560118     1.14100
C817        C  0.76414806  0.13606688  0.47671144     1.04900
O818        O  0.78094273  0.20028274  0.52215616    -0.94700
O819        O  0.82658318  0.19418772  0.56601805    -0.90400
O820        O  0.86786442  0.19661087  0.55962925    -0.83600
C821        C  0.84793267  0.20085540  0.57746246     1.11600
O822        O  0.83797033  0.07892573  0.47497917    -0.96700
Zr823      Zr  0.85955322  0.11728621  0.48343805     1.88900
O824        O  0.90603510  0.15499395  0.53497326    -0.73300
O825        O  0.80261398  0.14696774  0.56832186    -0.52600
O826        O  0.84584942  0.10050906  0.54325815    -0.97300
O827        O  0.88601343  0.08712763  0.45303705    -0.54500
O828        O  0.89515807  0.11570636  0.52491413    -0.73800
C829        C  0.90864074  0.13205534  0.54017821     0.98500
O830        O  0.90284647  0.21750314  0.51916126    -0.62700
O831        O  0.88246557  0.17802856  0.33567579    -0.57500
O832        O  0.91774768  0.19272120  0.46815478    -0.94100
O833        O  0.91660568  0.18268935  0.40586864    -0.92600
O834        O  0.84509188  0.22751625  0.36573077    -0.92900
O835        O  0.85564561  0.24782354  0.43560290    -0.91700
C836        C  0.92685538  0.19246169  0.43490755     1.17400
H837        H  0.83665593  0.17875407  0.36063510     0.33300
H838        H  0.83918383  0.21477308  0.50493009     0.44100
H839        H  0.90446278  0.14101085  0.46271853     0.37700
H840        H  0.80859230  0.12056429  0.48149214     0.34200
H841        H  0.80390121  0.25345143  0.43351894     0.25900
H842        H  0.81858805  0.14331234  0.58032196     0.31900
H843        H  0.85869617  0.08863884  0.55065629     0.37800
H844        H  0.86250649  0.22277601  0.36286510     0.32200
H845        H  0.89559545  0.19019924  0.33864983     0.31100
H846        H  0.92298224  0.14151765  0.36124324     0.32800
H847        H  0.90161406  0.09569339  0.44861793     0.31800
H848        H  0.87115092  0.24270911  0.44782449     0.35800
H849        H  0.89040444  0.23021013  0.52479024     0.28500
H850        H  0.76825924  0.12688898  0.37116124     0.32700
H851        H  0.84845121  0.06637751  0.48699925     0.35600
H852        H  0.88961837  0.16540835  0.31884892     0.28200
H853        H  0.91013065  0.21319942  0.54388435     0.41100
H854        H  0.77064588  0.19975391  0.49915078     0.31100
H855        H  0.79299476  0.23468464  0.46189826     0.38700
H856        H  0.87894383  0.08490704  0.42751060     0.30600
H857        H  0.79473479  0.15902758  0.58536032     0.30700
H858        H  0.78220703  0.10407187  0.38735489     0.30900
Zr859      Zr  0.68857802  0.33401442  0.12180607     2.17500
O860        O  0.71703199  0.36376456  0.14791621    -0.51400
O861        O  0.70979154  0.30639642  0.16673238    -0.74600
O862        O  0.67092676  0.35861383  0.17438170    -0.81400
O863        O  0.72772629  0.32821350  0.03125010    -0.83200
O864        O  0.63132302  0.34704575  0.18176531    -0.78800
O865        O  0.72583142  0.34687144  0.08885002    -0.90400
O866        O  0.70278497  0.26757973  0.14760931    -0.76400
O867        O  0.66123652  0.30332848  0.14302787    -0.85900
O868        O  0.69699025  0.29858579  0.08417141    -0.85600
O869        O  0.64817386  0.35020894  0.10865002    -0.72300
O870        O  0.68141985  0.34442798  0.05628851    -0.84500
Zr871      Zr  0.62112791  0.29491419  0.03153002     2.26400
Zr872      Zr  0.62086044  0.31915961  0.13116264     2.06300
Zr873      Zr  0.68896796  0.30827132  0.01932858     2.10000
Zr874      Zr  0.66935469  0.26829511  0.10463515     1.78800
O875        O  0.69756337  0.33220389  0.96330267    -0.93300
O876        O  0.65409833  0.24696145  0.15987878    -0.41100
O877        O  0.66126068  0.27809388  0.04055015    -0.77700
O878        O  0.62886580  0.28293733  0.09534208    -0.96400
O879        O  0.61272618  0.33064217  0.06704800    -0.89700
O880        O  0.64876857  0.32424133  0.00767900    -0.92500
C881        C  0.71312927  0.28315040  0.16895200     1.01200
C882        C  0.73661594  0.34172681  0.05748513     1.14100
C883        C  0.64982448  0.36011542  0.19069000     1.04900
O884        O  0.61608384  0.29767796  0.19057285    -0.94700
O885        O  0.58324260  0.29533365  0.12379244    -0.90400
O886        O  0.58396141  0.28245269  0.06273166    -0.83600
C887        C  0.57421178  0.28356692  0.09555141     1.11600
O888        O  0.65926769  0.39966946  0.05364043    -0.96700
Zr889      Zr  0.64090708  0.35987546  0.04388589     1.88900
O890        O  0.59404629  0.32118900  0.99530647    -0.73300
O891        O  0.58553146  0.34571823  0.14121505    -0.52600
O892        O  0.61295519  0.38927416  0.07267721    -0.97300
O893        O  0.65606798  0.37865268  0.98636425    -0.54500
O894        O  0.60590235  0.36051203  0.00123113    -0.73800
C895        C  0.59174231  0.34397271  0.98814697     0.98500
O896        O  0.60254089  0.25891042  0.00311557    -0.62700
O897        O  0.72067882  0.27790298  0.00630819    -0.57500
O898        O  0.63508755  0.27737227  0.97316721    -0.94100
O899        O  0.67640957  0.28071556  0.96780836    -0.92600
O900        O  0.69981743  0.24054054  0.07810105    -0.92900
O901        O  0.65151640  0.22910379  0.08845513    -0.91700
C902        C  0.65540089  0.27299427  0.95651022     1.17400
H903        H  0.71378604  0.29337564  0.08742635     0.33300
H904        H  0.61866020  0.26962057  0.10293055     0.44100
H905        H  0.64608634  0.32693995  0.98106586     0.37700
H906        H  0.64520281  0.36566510  0.12087372     0.34200
H907        H  0.66222173  0.25477668  0.18175239     0.25900
H908        H  0.58013738  0.34224144  0.16728196     0.31900
H909        H  0.59751057  0.38025408  0.07611603     0.37800
H910        H  0.69598283  0.23982655  0.05080225     0.32200
H911        H  0.73266797  0.28635474  0.99019612     0.31100
H912        H  0.70205586  0.32006899  0.94370048     0.32800
H913        H  0.64808009  0.36986204  0.96527407     0.31800
H914        H  0.64060931  0.23256634  0.06675594     0.35800
H915        H  0.60120641  0.24683378  0.02365699     0.28500
H916        H  0.71783649  0.36051174  0.17535200     0.32700
H917        H  0.67281853  0.39665532  0.07164454     0.35600
H918        H  0.72933468  0.27540395  0.03055698     0.28200
H919        H  0.58547655  0.26358495  0.99687402     0.41100
H920        H  0.60024615  0.30359877  0.20074537     0.31100
H921        H  0.63675188  0.25209059  0.16205457     0.38700
H922        H  0.67347111  0.37362065  0.98495691     0.30600
H923        H  0.59229755  0.36237161  0.14257901     0.30700
H924        H  0.70868534  0.37976713  0.14568184     0.30900
Zr925      Zr  0.09638569  0.55190917  0.15621299     2.17500
O926        O  0.12304565  0.52531559  0.11893059    -0.51400
O927        O  0.06698575  0.53210949  0.11139817    -0.74600
O928        O  0.10746206  0.51427929  0.19110375    -0.81400
O929        O  0.11426385  0.60793189  0.09788933    -0.83200
O930        O  0.09169968  0.51590546  0.25061084    -0.78800
O931        O  0.12625545  0.56914840  0.11141813    -0.90400
O932        O  0.02879239  0.54335037  0.12965917    -0.76400
O933        O  0.06163227  0.54694360  0.19621001    -0.85900
O934        O  0.06672209  0.58104352  0.13445381    -0.85600
O935        O  0.10999426  0.56062238  0.22031323    -0.72300
O936        O  0.11342010  0.59175361  0.16549655    -0.84500
Zr937      Zr  0.06233310  0.62297452  0.24514729     2.26400
Zr938      Zr  0.07440690  0.55620618  0.25982315     2.06300
Zr939      Zr  0.08388676  0.62077647  0.14380582     2.10000
Zr940      Zr  0.03212282  0.57582212  0.17439591     1.78800
O941        O  0.11180523  0.65443808  0.13344962    -0.93300
O942        O  0.00384685  0.54653300  0.20121202    -0.41100
O943        O  0.04832631  0.61577985  0.18201029    -0.77700
O944        O  0.04374068  0.58397215  0.23799246    -0.96400
O945        O  0.09241888  0.59535578  0.26788679    -0.89700
O946        O  0.09712829  0.62930633  0.20668295    -0.92500
C947        C  0.04337091  0.53123494  0.10857420     1.01200
C948        C  0.12840099  0.58938224  0.09334058     1.14100
C949        C  0.10353713  0.50514709  0.22405751     1.04900
O950        O  0.04496300  0.52591907  0.27994074    -0.94700
O951        O  0.05058804  0.57166206  0.31431764    -0.90400
O952        O  0.04719708  0.61261606  0.30665872    -0.83600
C953        C  0.04353707  0.59304757  0.32520556     1.11600
O954        O  0.16558313  0.58167856  0.20960093    -0.96700
Zr955      Zr  0.12694914  0.60075825  0.22805996     1.88900
O956        O  0.09061977  0.64750590  0.28081838    -0.73300
O957        O  0.10182323  0.54919137  0.31300796    -0.52600
O958        O  0.14918323  0.58633589  0.28333019    -0.97300
O959        O  0.15377431  0.62930420  0.19599947    -0.54500
O960        O  0.12980176  0.63457584  0.27256927    -0.73800
C961        C  0.11366845  0.64892570  0.28695456     0.98500
O962        O  0.02628684  0.64309682  0.27189772    -0.62700
O963        O  0.06456989  0.62906746  0.08314866    -0.57500
O964        O  0.05363492  0.66157051  0.21623502    -0.94100
O965        O  0.06132671  0.65905011  0.15335008    -0.92600
O966        O  0.01086348  0.59364930  0.12055063    -0.92900
O967        O  0.99320343  0.59455762  0.19179538    -0.91700
C968        C  0.05338519  0.67030041  0.18285754     1.17400
H969        H  0.06272436  0.57863825  0.10815452     0.33300
H970        H  0.02912461  0.58300142  0.25316875     0.44100
H971        H  0.10279444  0.64587785  0.20862626     0.37700
H972        H  0.12275984  0.54946045  0.22794378     0.34200
H973        H  0.99078288  0.54470094  0.18202439     0.25900
H974        H  0.10065573  0.56420312  0.32852575     0.31900
H975        H  0.14634422  0.56856471  0.28374170     0.37800
H976        H  0.01744859  0.58514155  0.09800669     0.32200
H977        H  0.06781623  0.61440628  0.06751121     0.31100
H978        H  0.10755943  0.66052674  0.10799857     0.32800
H979        H  0.14620982  0.64557816  0.19965753     0.31800
H980        H  0.99767209  0.60823544  0.20870447     0.35800
H981        H  0.03168974  0.65951299  0.27989393     0.28500
H982        H  0.11436990  0.50959588  0.11713667     0.32700
H983        H  0.17842912  0.59083869  0.22323456     0.35600
H984        H  0.04679838  0.62858601  0.08840072     0.28200
H985        H  0.01503481  0.64591911  0.25040290     0.41100
H986        H  0.02884290  0.53278908  0.27264831     0.31100
H987        H  0.01278017  0.53077884  0.20059880     0.38700
H988        H  0.15158550  0.62574121  0.16878533     0.30600
H989        H  0.09354377  0.53663594  0.32820922     0.30700
H990        H  0.13746466  0.52197911  0.13513706     0.30900
Zr991      Zr  0.90529265  0.42488081  0.87110946     2.17500
O992        O  0.87597139  0.45446775  0.89639241    -0.51400
O993        O  0.93413215  0.44660574  0.91432577    -0.74600
O994        O  0.88112437  0.40918660  0.92494243    -0.81400
O995        O  0.90746368  0.45975111  0.77570290    -0.83200
O996        O  0.89202281  0.36964275  0.93488631    -0.78800
O997        O  0.89390481  0.46223502  0.83643215    -0.90400
O998        O  0.97254217  0.43381263  0.89987277    -0.76400
O999        O  0.93554986  0.39677988  0.89304875    -0.85900
O1000       O  0.94037597  0.43045956  0.83195378    -0.85600
O1001       O  0.88783294  0.38486683  0.86042214    -0.72300
O1002       O  0.89308046  0.41608059  0.80658192    -0.84500
Zr1003     Zr  0.94124032  0.35342910  0.78332651     2.26400
Zr1004     Zr  0.91848906  0.35699958  0.88363431     2.06300
Zr1005     Zr  0.92870379  0.42103825  0.76801707     2.10000
Zr1006     Zr  0.97035817  0.40220369  0.85348421     1.78800
O1007       O  0.90352906  0.42614546  0.71175810    -0.93300
O1008       O  0.99255595  0.38408517  0.90618222    -0.41100
O1009       O  0.95890848  0.39295477  0.79021541    -0.77700
O1010       O  0.95461968  0.36209373  0.84636150    -0.96400
O1011       O  0.90580322  0.34787719  0.82053671    -0.89700
O1012       O  0.91182207  0.38131475  0.75863159    -0.92500
C1013       C  0.95765636  0.44717746  0.91851495     1.01200
C1014       C  0.89655777  0.47087360  0.80289358     1.14100
C1015       C  0.87945801  0.38879742  0.94276231     1.04900
O1016       O  0.94140975  0.35075057  0.94185816    -0.94700
O1017       O  0.93958341  0.31784610  0.87741021    -0.90400
O1018       O  0.94995143  0.31543296  0.81538480    -0.83600
C1019       C  0.94877564  0.30664396  0.84880198     1.11600
O1020       O  0.83865730  0.39777442  0.81124363    -0.96700
Zr1021     Zr  0.87652708  0.37604130  0.79645720     1.88900
O1022       O  0.91406294  0.32596101  0.74985164    -0.73300
O1023       O  0.88958630  0.32392219  0.89257294    -0.52600
O1024       O  0.84407152  0.35066771  0.82147718    -0.97300
O1025       O  0.85833624  0.39030500  0.73757442    -0.54500
O1026       O  0.87480105  0.33842502  0.75891051    -0.73800
C1027       C  0.89088520  0.32351015  0.74554602     0.98500
O1028       O  0.97756283  0.33310902  0.75795973    -0.62700
O1029       O  0.95658026  0.45376844  0.75156306    -0.57500
O1030       O  0.95822194  0.36548011  0.72350417    -0.94100
O1031       O  0.95654797  0.40672451  0.71800814    -0.92600
O1032       O  0.99656305  0.43259818  0.82457554    -0.92900
O1033       O  0.01057295  0.38679180  0.83530066    -0.91700
C1034       C  0.96340115  0.38541346  0.70671608     1.17400
H1035       H  0.94624238  0.44696682  0.83402244     0.33300
H1036       H  0.96755687  0.35108366  0.85397554     0.44100
H1037       H  0.90862199  0.37801764  0.73229439     0.37700
H1038       H  0.87251581  0.38278684  0.87338854     0.34200
H1039       H  0.00677672  0.39484340  0.91036630     0.25900
H1040       H  0.89527391  0.31559177  0.91571964     0.31900
H1041       H  0.84900384  0.34722616  0.84779440     0.37800
H1042       H  0.99925017  0.44526670  0.84408640     0.32200
H1043       H  0.95593137  0.46535928  0.77304444     0.31100
H1044       H  0.91527170  0.42662231  0.69054418     0.32800
H1045       H  0.84089772  0.38563766  0.73908476     0.31800
H1046       H  0.00884907  0.38230909  0.80832658     0.35800
H1047       H  0.98871927  0.33092929  0.77975768     0.28500
H1048       H  0.88004952  0.45625312  0.92350618     0.32700
H1049       H  0.84196686  0.40634503  0.83535523     0.35600
H1050       H  0.97312612  0.44638127  0.75320036     0.28200
H1051       H  0.97230181  0.31646179  0.75099788     0.41100
H1052       H  0.92945150  0.34411288  0.95998216     0.31100
H1053       H  0.98195130  0.38701925  0.92840121     0.38700
H1054       H  0.86514924  0.37949019  0.71771329     0.30600
H1055       H  0.87400110  0.33189038  0.89999646     0.30700
H1056       H  0.85986965  0.44631949  0.89580201     0.30900
C1057       C  0.02189052  0.49968178  0.02744472     0.29700
C1058       C  0.02243591  0.48941144  0.99099499    -0.36700
C1059       C  0.99992284  0.48107358  0.97649504     0.15600
C1060       C  0.97815518  0.48272636  0.99606105     0.21500
C1061       C  0.97757372  0.49321544  0.03234779    -0.34800
C1062       C  0.00012078  0.50134013  0.04697847     0.15600
O1063       O  0.04070957  0.50883835  0.04662140    -0.26800
C1064       C  0.03079863  0.51637210  0.07909175     0.05300
C1065       C  0.00564250  0.51202249  0.08054587    -0.31700
O1066       O  0.95961649  0.47227298  0.97790148    -0.23500
C1067       C  0.96972244  0.46376859  0.94616707    -0.03500
C1068       C  0.99467939  0.46897323  0.94397617    -0.18000
H1069       H  0.03929962  0.48765523  0.97520988     0.20000
H1070       H  0.96080462  0.49450731  0.04846264     0.18400
H1071       H  0.99297725  0.51685175  0.10287600     0.18300
H1072       H  0.00748695  0.46344501  0.92222178     0.14200
C1073       C  0.78842798  0.37442636  0.02973802     0.29700
C1074       C  0.80102137  0.39364847  0.01236710    -0.36700
C1075       C  0.82500845  0.38842777  0.00010724     0.15600
C1076       C  0.83581091  0.36587023  0.00494231     0.21500
C1077       C  0.82339181  0.34681537  0.02262266    -0.34800
C1078       C  0.79944987  0.35195697  0.03451328     0.15600
O1079       O  0.76504190  0.37435890  0.03945305    -0.26800
C1080       C  0.76118454  0.35158907  0.05073652     0.05300
C1081       C  0.78190980  0.33688509  0.04809577    -0.31700
O1082       O  0.85707068  0.36393251  0.98769749    -0.23500
C1083       C  0.86024172  0.38552252  0.97155579    -0.03500
C1084       C  0.84086653  0.40160273  0.97850215    -0.18000
H1085       H  0.79226102  0.41101552  0.00690701     0.20000
H1086       H  0.83135872  0.32877944  0.02496776     0.18400
H1087       H  0.78334888  0.31749204  0.05303339     0.18300
H1088       H  0.83789036  0.41949126  0.96660385     0.14200
C1089       C  0.87051476  0.23577543  0.65212413     0.29700
C1090       C  0.88961418  0.24649409  0.67259092    -0.36700
C1091       C  0.88366296  0.26764090  0.69292768     0.15600
C1092       C  0.86041323  0.27758254  0.69358565     0.21500
C1093       C  0.84107549  0.26652136  0.67351333    -0.34800
C1094       C  0.84708408  0.24530827  0.65277119     0.15600
O1095       O  0.87301942  0.21786134  0.62762691    -0.26800
C1096       C  0.85092433  0.21543699  0.61227661     0.05300
C1097       C  0.83386497  0.23192175  0.62711205    -0.31700
O1098       O  0.85951031  0.29843904  0.71260315    -0.23500
C1099       C  0.88254440  0.30185127  0.72402111    -0.03500
C1100       C  0.89824114  0.28313308  0.71265041    -0.18000
H1101       H  0.90817291  0.23951562  0.67115922     0.20000
H1102       H  0.82291645  0.27450277  0.67273041     0.18400
H1103       H  0.81527860  0.23517824  0.61770695     0.18300
H1104       H  0.91776836  0.28152252  0.71737335     0.14200
C1105       C  0.74100208  0.26282926  0.25238164     0.29700
C1106       C  0.74586058  0.26223684  0.29129963    -0.36700
C1107       C  0.75482334  0.24000240  0.30550776     0.15600
C1108       C  0.75878135  0.21966929  0.28320648     0.21500
C1109       C  0.75398507  0.22028891  0.24435922    -0.34800
C1110       C  0.74519518  0.24251893  0.23014962     0.15600
O1111       O  0.73094478  0.28107791  0.23333610    -0.26800
C1112       C  0.72887101  0.27228272  0.19836993     0.05300
C1113       C  0.73773679  0.24849802  0.19493282    -0.31700
O1114       O  0.76869350  0.20129717  0.30202192    -0.23500
C1115       C  0.77109864  0.20996177  0.33696560    -0.03500
C1116       C  0.76259345  0.23389737  0.34064214    -0.18000
H1117       H  0.74280782  0.27795203  0.30929195     0.20000
H1118       H  0.75704069  0.20457752  0.22635923     0.18400
H1119       H  0.73691063  0.23659219  0.17050973     0.18300
H1120       H  0.76364617  0.24569552  0.36516392     0.14200
C1121       C  0.50449560  0.36125002  0.89193758     0.29700
C1122       C  0.51549279  0.34297057  0.91360923    -0.36700
C1123       C  0.53725806  0.34921708  0.93191209     0.15600
C1124       C  0.54764830  0.37196105  0.92942438     0.21500
C1125       C  0.53655705  0.39041346  0.90761450    -0.34800
C1126       C  0.51459029  0.38412993  0.88917794     0.15600
O1127       O  0.48511450  0.35849050  0.87032371    -0.26800
C1128       C  0.48231947  0.37993041  0.85360023     0.05300
C1129       C  0.50008556  0.39672719  0.86436758    -0.31700
O1130       O  0.56832943  0.37346706  0.94885631    -0.23500
C1131       C  0.57109970  0.35130166  0.96364706    -0.03500
C1132       C  0.55230797  0.33556648  0.95387758    -0.18000
H1133       H  0.50788509  0.32487571  0.91534163     0.20000
H1134       H  0.54464344  0.40823322  0.90476033     0.18400
H1135       H  0.50298911  0.41480920  0.85331751     0.18300
H1136       H  0.55002721  0.31673841  0.96194903     0.14200
C1137       C  0.62295019  0.40558475  0.24690015     0.29700
C1138       C  0.60295696  0.41973610  0.25905984    -0.36700
C1139       C  0.60849283  0.44202616  0.27638161     0.15600
C1140       C  0.63214990  0.44982910  0.28209134     0.21500
C1141       C  0.65228142  0.43556696  0.26980086    -0.34800
C1142       C  0.64671001  0.41330787  0.25173869     0.15600
O1143       O  0.62153770  0.38532703  0.22703735    -0.26800
C1144       C  0.64462684  0.37972910  0.21847840     0.05300
C1145       C  0.66121733  0.39655924  0.23313664    -0.31700
O1146       O  0.63290125  0.47222500  0.29626994    -0.23500
C1147       C  0.60940632  0.47877425  0.29952664    -0.03500
C1148       C  0.59351016  0.46070424  0.28730807    -0.18000
H1149       H  0.58427978  0.41424146  0.25373219     0.20000
H1150       H  0.67090043  0.44191926  0.27250166     0.18400
H1151       H  0.68080110  0.39717907  0.22879104     0.18300
H1152       H  0.57378205  0.46176808  0.28480048     0.14200
C1153       C  0.50833534  0.50884136  0.49391349     0.29700
C1154       C  0.48524956  0.50410687  0.50976283    -0.36700
C1155       C  0.48468006  0.48683256  0.53878616     0.15600
C1156       C  0.50552589  0.47509537  0.55126510     0.21500
C1157       C  0.52867589  0.47980429  0.53532599    -0.34800
C1158       C  0.52923765  0.49710248  0.50617472     0.15600
O1159       O  0.51270441  0.52398889  0.46613477    -0.26800
C1160       C  0.53673465  0.52211425  0.45997674     0.05300
C1161       C  0.54810879  0.50558259  0.48423898    -0.31700
O1162       O  0.50081243  0.45943961  0.57834465    -0.23500
C1163       C  0.47661784  0.46103887  0.58349304    -0.03500
C1164       C  0.46556992  0.47787617  0.55951891    -0.18000
H1165       H  0.46881790  0.51318973  0.49989833     0.20000
H1166       H  0.54506072  0.47047931  0.54483747     0.18400
H1167       H  0.56722809  0.50033683  0.48520008     0.18300
H1168       H  0.44635625  0.48259243  0.55735878     0.14200
C1169       C  0.52602079  0.24291048  0.08464933     0.29700
C1170       C  0.51192683  0.22629281  0.06429382    -0.36700
C1171       C  0.49216759  0.21632028  0.08348734     0.15600
C1172       C  0.48646604  0.22211356  0.12039234     0.21500
C1173       C  0.50087445  0.23874794  0.14108469    -0.34800
C1174       C  0.52082746  0.24890949  0.12166200     0.15600
O1175       O  0.54487270  0.25467475  0.07132123    -0.26800
C1176       C  0.55218548  0.26860983  0.09986492     0.05300
C1177       C  0.53800114  0.26576488  0.13224750    -0.31700
O1178       O  0.46589603  0.21171794  0.13147956    -0.23500
C1179       C  0.45863008  0.19918463  0.10113315    -0.03500
C1180       C  0.47435151  0.20143911  0.07065472    -0.18000
H1181       H  0.51577433  0.22189093  0.03507322     0.20000
H1182       H  0.49649948  0.24384558  0.16984436     0.18400
H1183       H  0.54006869  0.27467759  0.15936397     0.18300
H1184       H  0.47212748  0.19429021  0.04231945     0.14200
C1185       C  0.35160349  0.25137188  0.88924364     0.29700
C1186       C  0.34369100  0.27271370  0.87064243    -0.36700
C1187       C  0.36098289  0.28401282  0.84703297     0.15600
C1188       C  0.38438229  0.27490041  0.84226072     0.21500
C1189       C  0.39213291  0.25356053  0.86028720    -0.34800
C1190       C  0.37494739  0.24234782  0.88361388     0.15600
O1191       O  0.33949429  0.23896759  0.91526269    -0.26800
C1192       C  0.35540635  0.22177879  0.92613510     0.05300
C1193       C  0.37759770  0.22307607  0.90702998    -0.31700
O1194       O  0.39798514  0.28870146  0.82054247    -0.23500
C1195       C  0.38321908  0.30698954  0.81073089    -0.03500
C1196       C  0.35986672  0.30501841  0.82630677    -0.18000
H1197       H  0.32562913  0.28038807  0.87515636     0.20000
H1198       H  0.41060120  0.24655897  0.85723432     0.18400
H1199       H  0.39403185  0.21236663  0.91174668     0.18300
H1200       H  0.34453751  0.31746111  0.82339475     0.14200
C1201       C  0.01734719  0.24982832  0.44506108     0.29700
C1202       C  0.00130183  0.23677887  0.46763037    -0.36700
C1203       C  0.98253396  0.22478850  0.44872551     0.15600
C1204       C  0.97940915  0.22547765  0.41010555     0.21500
C1205       C  0.99569215  0.23869425  0.38723787    -0.34800
C1206       C  0.01477376  0.25082228  0.40634172     0.15600
O1207       O  0.03639994  0.26175103  0.45746455    -0.26800
C1208       C  0.04654948  0.27073763  0.42660639     0.05300
C1209       C  0.03388857  0.26464800  0.39365545    -0.31700
O1210       O  0.95974619  0.21332745  0.39904820    -0.23500
C1211       C  0.95048542  0.20491872  0.43124525    -0.03500
C1212       C  0.96406801  0.21148402  0.46278990    -0.18000
H1213       H  0.00333871  0.23603171  0.49800065     0.20000
H1214       H  0.99360509  0.23952018  0.35690193     0.18400
H1215       H  0.03847683  0.26908660  0.36482010     0.18300
H1216       H  0.96035184  0.20768164  0.49218000     0.14200
C1217       C  0.28116233  0.37272973  0.51717870     0.29700
C1218       C  0.29197374  0.38912962  0.54278633    -0.36700
C1219       C  0.31750236  0.38733210  0.54708585     0.15600
C1220       C  0.33139811  0.37024783  0.52792336     0.21500
C1221       C  0.32065218  0.35418229  0.50165671    -0.34800
C1222       C  0.29513248  0.35621398  0.49695957     0.15600
O1223       O  0.25745629  0.36983529  0.51151758    -0.26800
C1224       C  0.25609636  0.35161895  0.48661962     0.05300
C1225       C  0.27900268  0.34239678  0.47652948    -0.31700
O1226       O  0.35435854  0.36967761  0.53973663    -0.23500
C1227       C  0.35540440  0.38696213  0.56631440    -0.03500
C1228       C  0.33299149  0.39869250  0.57180592    -0.18000
H1229       H  0.28108681  0.40173997  0.55941564     0.20000
H1230       H  0.33129740  0.34033110  0.48714717     0.18400
H1231       H  0.28305087  0.32674638  0.45886122     0.18300
H1232       H  0.32828739  0.41199439  0.59330018     0.14200
C1233       C  0.25932313  0.21402561  0.25170373     0.29700
C1234       C  0.25030384  0.21315971  0.28869566    -0.36700
C1235       C  0.24124358  0.23523211  0.30355422     0.15600
C1236       C  0.24089447  0.25676809  0.28363752     0.21500
C1237       C  0.24979205  0.25761134  0.24661264    -0.34800
C1238       C  0.25883985  0.23555760  0.23177360     0.15600
O1239       O  0.27015377  0.19599862  0.23292470    -0.26800
C1240       C  0.27657998  0.20622869  0.20049043     0.05300
C1241       C  0.26977382  0.23070387  0.19833405    -0.31700
O1242       O  0.23083074  0.27502743  0.30281288    -0.23500
C1243       C  0.22471351  0.26499103  0.33553217    -0.03500
C1244       C  0.23088043  0.24033035  0.33741725    -0.18000
H1245       H  0.25056409  0.19653234  0.30494433     0.20000
H1246       H  0.24978646  0.27430392  0.23051807     0.18400
H1247       H  0.27375273  0.24352407  0.17610254     0.18300
H1248       H  0.22722573  0.22768138  0.36001070     0.14200
C1249       C  0.00797169  0.38717565  0.63514508     0.29700
C1250       C  0.02908087  0.39535762  0.61633133    -0.36700
C1251       C  0.04074613  0.37832311  0.59227936     0.15600
C1252       C  0.03217273  0.35495008  0.58728181     0.21500
C1253       C  0.01099781  0.34699160  0.60538798    -0.34800
C1254       C  0.99945190  0.36387968  0.62921172     0.15600
O1255       O  0.99547441  0.39889854  0.66180413    -0.26800
C1256       C  0.97881008  0.38275201  0.67274475     0.05300
C1257       C  0.98044927  0.36082832  0.65312423    -0.31700
O1258       O  0.04655225  0.34143579  0.56582059    -0.23500
C1259       C  0.06464994  0.35624083  0.55639650    -0.03500
C1260       C  0.06196604  0.37954055  0.57186670    -0.18000
H1261       H  0.03642985  0.41334421  0.62121232     0.20000
H1262       H  0.00450005  0.32851931  0.60228246     0.18400
H1263       H  0.97018509  0.34433313  0.65778498     0.18300
H1264       H  0.07427447  0.39479626  0.56951078     0.14200
C1265       C  0.14604050  0.41625922  0.29347774     0.29700
C1266       C  0.15305672  0.44010010  0.28392020    -0.36700
C1267       C  0.13618254  0.45371179  0.26225874     0.15600
C1268       C  0.11385530  0.44456968  0.25104492     0.21500
C1269       C  0.10692929  0.42077955  0.26039628    -0.34800
C1270       C  0.12381456  0.40717621  0.28174636     0.15600
O1271       O  0.15818238  0.40082421  0.31548543    -0.26800
C1272       C  0.14356666  0.38150621  0.31761043     0.05300
C1273       C  0.12198263  0.38458656  0.29704867    -0.31700
O1274       O  0.09999110  0.46100309  0.23392604    -0.23500
C1275       C  0.11373577  0.48090870  0.23330524    -0.03500
C1276       C  0.13637193  0.47747048  0.25081704    -0.18000
H1277       H  0.17014062  0.44777117  0.29364622     0.20000
H1278       H  0.08922301  0.41361450  0.25258423     0.18400
H1279       H  0.10655748  0.37238041  0.29519866     0.18300
H1280       H  0.15020104  0.49100052  0.25659630     0.14200
C1281       C  0.22148808  0.60594182  0.01141419     0.29700
C1282       C  0.21008952  0.58710007  0.03158393    -0.36700
C1283       C  0.18566115  0.59142441  0.04254434     0.15600
C1284       C  0.17352801  0.61286168  0.03423152     0.21500
C1285       C  0.18485682  0.63156692  0.01417545    -0.34800
C1286       C  0.20908136  0.62723658  0.00317253     0.15600
O1287       O  0.24465856  0.60668704  0.00079241    -0.26800
C1288       C  0.24686406  0.62858195  0.98510494     0.05300
C1289       C  0.22539324  0.64219555  0.98615732    -0.31700
O1290       O  0.15159645  0.61407294  0.04936693    -0.23500
C1291       C  0.14927733  0.59313204  0.06765596    -0.03500
C1292       C  0.16994063  0.57817085  0.06434087    -0.18000
H1293       H  0.21981199  0.57060269  0.03922754     0.20000
H1294       H  0.17563004  0.64868328  0.00859136     0.18400
H1295       H  0.22265070  0.66093232  0.97771572     0.18300
H1296       H  0.17344473  0.56088554  0.07792416     0.14200
C1297       C  0.49379672  0.58878709  0.13648169     0.29700
C1298       C  0.47231772  0.58094630  0.11829199    -0.36700
C1299       C  0.46060066  0.59816484  0.09503619     0.15600
C1300       C  0.46945390  0.62141572  0.09019682     0.21500
C1301       C  0.49101916  0.62906021  0.10767214    -0.34800
C1302       C  0.50265648  0.61193807  0.13068529     0.15600
O1303       O  0.50626956  0.57690681  0.16274058    -0.26800
C1304       C  0.52328209  0.59275817  0.17352317     0.05300
C1305       C  0.52195436  0.61467346  0.15417803    -0.31700
O1306       O  0.45501154  0.63507764  0.06933796    -0.23500
C1307       C  0.43665160  0.62045057  0.06023095    -0.03500
C1308       C  0.43913787  0.59717144  0.07527305    -0.18000
H1309       H  0.46474282  0.56308889  0.12312175     0.20000
H1310       H  0.49774763  0.64743860  0.10471301     0.18400
H1311       H  0.53243512  0.63104991  0.15908643     0.18300
H1312       H  0.42664850  0.58204336  0.07287500     0.14200
C1313       C  0.37255711  0.52378161  0.75726981     0.29700
C1314       C  0.35255360  0.53692635  0.77264090    -0.36700
C1315       C  0.35777647  0.56009665  0.78795955     0.15600
C1316       C  0.38105020  0.56961608  0.78751312     0.21500
C1317       C  0.40093199  0.55654981  0.77233814    -0.34800
C1318       C  0.39579658  0.53339919  0.75766367     0.15600
O1319       O  0.37232034  0.50115730  0.74401938    -0.26800
C1320       C  0.39572158  0.49632842  0.73589180     0.05300
C1321       C  0.41110723  0.51566892  0.74420967    -0.31700
O1322       O  0.38244490  0.59060963  0.80543187    -0.23500
C1323       C  0.35986272  0.59489647  0.81807041    -0.03500
C1324       C  0.34358306  0.57648740  0.80790931    -0.18000
H1325       H  0.33440324  0.52923798  0.77389164     0.20000
H1326       H  0.41937266  0.56358592  0.77332297     0.18400
H1327       H  0.43086038  0.51617201  0.74215139     0.18300
H1328       H  0.32457260  0.57474052  0.81587880     0.14200
C1329       C  0.12988946  0.73212262  0.38957346     0.29700
C1330       C  0.11203902  0.72233890  0.36592840    -0.36700
C1331       C  0.11890996  0.70158919  0.34567215     0.15600
C1332       C  0.14183534  0.69098385  0.34806293     0.21500
C1333       C  0.15995880  0.70099274  0.37172531    -0.34800
C1334       C  0.15302282  0.72196851  0.39227708     0.15600
O1335       O  0.12650594  0.75049827  0.41278986    -0.26800
C1336       C  0.14775710  0.75258661  0.43060738     0.05300
C1337       C  0.16512486  0.73538817  0.41899222    -0.31700
O1338       O  0.14360884  0.67093504  0.32726218    -0.23500
C1339       C  0.12142823  0.66892128  0.31181358    -0.03500
C1340       C  0.10549372  0.68753854  0.32228544    -0.18000
H1341       H  0.09375997  0.73000423  0.36426674     0.20000
H1342       H  0.17791120  0.69274175  0.37456671     0.18400
H1343       H  0.18335940  0.73238286  0.43008364     0.18300
H1344       H  0.08652272  0.69012568  0.31425589     0.14200
C1345       C  0.24515425  0.76232786  0.74928598     0.29700
C1346       C  0.25961720  0.76465947  0.78188455    -0.36700
C1347       C  0.26626847  0.74279225  0.79992458     0.15600
C1348       C  0.25942703  0.72008853  0.78695537     0.21500
C1349       C  0.24501363  0.71776865  0.75439995    -0.34800
C1350       C  0.23830854  0.73959322  0.73647791     0.15600
O1351       O  0.23614636  0.78027264  0.72830806    -0.26800
C1352       C  0.22339568  0.76871306  0.70169878     0.05300
C1353       C  0.22427656  0.74344613  0.70558863    -0.31700
O1354       O  0.26821820  0.70206924  0.80789686    -0.23500
C1355       C  0.28079847  0.71344345  0.83483664    -0.03500
C1356       C  0.28006870  0.73875971  0.83114078    -0.18000
H1357       H  0.26519945  0.78225667  0.79259802     0.20000
H1358       H  0.23937184  0.70017600  0.74374574     0.18400
H1359       H  0.21529108  0.72977239  0.68846787     0.18300
H1360       H  0.28903621  0.75230470  0.84852234     0.14200
C1361       C  0.00108539  0.76404697  0.19419205     0.29700
C1362       C  0.01630613  0.74897800  0.21560065    -0.36700
C1363       C  0.02627974  0.72893716  0.19666502     0.15600
C1364       C  0.02186577  0.72398286  0.15904254     0.21500
C1365       C  0.00668615  0.73935818  0.13736200    -0.34800
C1366       C  0.99640534  0.75947616  0.15653132     0.15600
O1367       O  0.98926885  0.78316894  0.20706579    -0.26800
C1368       C  0.97666936  0.79121207  0.17754030     0.05300
C1369       C  0.98034274  0.77724910  0.14504764    -0.31700
O1370       O  0.03187255  0.70309680  0.14810307    -0.23500
C1371       C  0.04265017  0.69477460  0.17929029    -0.03500
C1372       C  0.03981000  0.71020788  0.21018284    -0.18000
H1373       H  0.01955637  0.75227268  0.24533668     0.20000
H1374       H  0.00258982  0.73550073  0.10805946     0.18400
H1375       H  0.97233765  0.77974458  0.11737026     0.18300
H1376       H  0.04580614  0.70738018  0.23899129     0.14200
C1377       C  0.86631970  0.02392795  0.25514392     0.29700
C1378       C  0.84691740  0.03519320  0.27507560    -0.36700
C1379       C  0.85102124  0.05914984  0.28797527     0.15600
C1380       C  0.87265346  0.07112267  0.28116216     0.21500
C1381       C  0.89174461  0.06010350  0.26067679    -0.34800
C1382       C  0.88779574  0.03617589  0.24830865     0.15600
O1383       O  0.86776505  0.00073559  0.24495859    -0.26800
C1384       C  0.89036801  0.99821510  0.23120990     0.05300
C1385       C  0.90363822  0.01966698  0.23270013    -0.31700
O1386       O  0.87394571  0.09214473  0.29905455    -0.23500
C1387       C  0.85288213  0.09403847  0.31770315    -0.03500
C1388       C  0.83770258  0.07404417  0.31166918    -0.18000
H1389       H  0.83041604  0.02543687  0.28205971     0.20000
H1390       H  0.90912124  0.06905759  0.25673474     0.18400
H1391       H  0.92276030  0.02222075  0.22598065     0.18300
H1392       H  0.82031954  0.07024935  0.32490666     0.14200
C1393       C  0.04570811  0.87639663  0.43486730     0.29700
C1394       C  0.03359767  0.89572322  0.41632760    -0.36700
C1395       C  0.01186569  0.88972226  0.39698976     0.15600
C1396       C  0.00290699  0.86630837  0.39610976     0.21500
C1397       C  0.01490418  0.84713642  0.41447196    -0.34800
C1398       C  0.03646832  0.85310877  0.43352947     0.15600
O1399       O  0.06638742  0.87757116  0.45440279    -0.26800
C1400       C  0.07032619  0.85466498  0.46541039     0.05300
C1401       C  0.05228015  0.83876470  0.45302769    -0.31700
O1402       O  0.98383660  0.86403483  0.37382384    -0.23500
C1403       C  0.98011300  0.88623995  0.36006111    -0.03500
C1404       C  0.99693173  0.90314521  0.37370905    -0.18000
H1405       H  0.04085723  0.91399563  0.41631632     0.20000
H1406       H  0.00822218  0.82864654  0.41308258     0.18400
H1407       H  0.05088970  0.81939081  0.45802658     0.18300
H1408       H  0.99927382  0.92183024  0.36497028     0.14200
C1409       C  0.98309318  0.25499829  0.87362067     0.29700
C1410       C  0.00052819  0.24137606  0.89421459    -0.36700
C1411       C  0.01170532  0.22184548  0.87468232     0.15600
C1412       C  0.00579308  0.21630929  0.83775905     0.21500
C1413       C  0.98820541  0.22940537  0.81768243    -0.34800
C1414       C  0.97730563  0.24878511  0.83690053     0.15600
O1415       O  0.97235088  0.27560988  0.88422374    -0.26800
C1416       C  0.95969307  0.28236971  0.85373112     0.05300
C1417       C  0.96199259  0.26620157  0.82375232    -0.31700
O1418       O  0.01867764  0.19818389  0.82410445    -0.23500
C1419       C  0.03323116  0.19163236  0.85232942    -0.03500
C1420       C  0.02972476  0.20559492  0.88490027    -0.18000
H1421       H  0.00568979  0.24623155  0.92275664     0.20000
H1422       H  0.98398446  0.22530306  0.78847990     0.18400
H1423       H  0.95494657  0.26808249  0.79532138     0.18300
H1424       H  0.03884847  0.20389880  0.91189637     0.14200
C1425       C  0.99245276  0.11419065  0.64219064     0.29700
C1426       C  0.98011295  0.13331083  0.62440509    -0.36700
C1427       C  0.96031537  0.12675862  0.60179069     0.15600
C1428       C  0.95298096  0.10298404  0.59673684     0.21500
C1429       C  0.96545995  0.08366396  0.61473320    -0.34800
C1430       C  0.98550791  0.09025317  0.63761756     0.15600
O1431       O  0.01056945  0.11674221  0.66606525    -0.26800
C1432       C  0.01573637  0.09424038  0.67729978     0.05300
C1433       C  0.00078125  0.07678539  0.66041922    -0.31700
O1434       O  0.93365359  0.10135839  0.57430852    -0.23500
C1435       C  0.92877177  0.12443204  0.56518575    -0.03500
C1436       C  0.94478735  0.14091317  0.58158509    -0.18000
H1437       H  0.98539070  0.15210757  0.62843861     0.20000
H1438       H  0.95977613  0.06493935  0.61150370     0.18400
H1439       H  0.00028402  0.05741946  0.66578036     0.18300
H1440       H  0.94496430  0.16054829  0.57895960     0.14200
C1441       C  0.11964316  0.94694375  0.78246797     0.29700
C1442       C  0.11493693  0.92192620  0.77858348    -0.36700
C1443       C  0.13131534  0.90852738  0.75583895     0.15600
C1444       C  0.15109873  0.91892511  0.73816063     0.21500
C1445       C  0.15590091  0.94394792  0.74224949    -0.34800
C1446       C  0.13944055  0.95739148  0.76485636     0.15600
O1447       O  0.10549358  0.96319744  0.79966415    -0.26800
C1448       C  0.11648915  0.98433603  0.79332645     0.05300
C1449       C  0.13757367  0.98184026  0.77161967    -0.31700
O1450       O  0.16246933  0.90354575  0.71506180    -0.23500
C1451       C  0.14982745  0.88295950  0.71793432    -0.03500
C1452       C  0.13030871  0.88508992  0.74308811    -0.18000
H1453       H  0.09895248  0.91368107  0.79100309     0.20000
H1454       H  0.17076752  0.95256340  0.72739455     0.18400
H1455       H  0.14906399  0.99613070  0.76070641     0.18300
H1456       H  0.11618249  0.87188800  0.74870231     0.14200
C1457       C  0.98370531  0.98041235  0.03107253     0.29700
C1458       C  0.98204383  0.99018997  0.99457880    -0.36700
C1459       C  0.00397256  0.99871600  0.97874423     0.15600
C1460       C  0.02618435  0.99791700  0.99727806     0.21500
C1461       C  0.02787690  0.98805139  0.03379124    -0.34800
C1462       C  0.00590844  0.97946663  0.04963323     0.15600
O1463       O  0.96563236  0.97063486  0.05078653    -0.26800
C1464       C  0.97639142  0.96326048  0.08257402     0.05300
C1465       C  0.00141984  0.96844003  0.08321786    -0.31700
O1466       O  0.04408265  0.00811981  0.97763661    -0.23500
C1467       C  0.03311128  0.01550464  0.94598157    -0.03500
C1468       C  0.00822136  0.00990191  0.94532624    -0.18000
H1469       H  0.96482137  0.99112703  0.97951187     0.20000
H1470       H  0.04507949  0.98723070  0.04893108     0.18400
H1471       H  0.01465335  0.96383851  0.10486135     0.18300
H1472       H  0.99482903  0.01455217  0.92393958     0.14200
C1473       C  0.12654925  0.24171027  0.65028076     0.29700
C1474       C  0.10854484  0.23097487  0.67269023    -0.36700
C1475       C  0.11509471  0.20909026  0.69029202     0.15600
C1476       C  0.13790599  0.19842099  0.68660619     0.21500
C1477       C  0.15615176  0.20941814  0.66448087    -0.34800
C1478       C  0.14953984  0.23140018  0.64660094     0.15600
O1479       O  0.12320859  0.26060161  0.62805767    -0.26800
C1480       C  0.14442276  0.26290736  0.61013156     0.05300
C1481       C  0.16161425  0.24529246  0.62070056    -0.31700
O1482       O  0.13943795  0.17717884  0.70417002    -0.23500
C1483       C  0.11720386  0.17424544  0.71898217    -0.03500
C1484       C  0.10145307  0.19363472  0.71122888    -0.18000
H1485       H  0.09027115  0.23859553  0.67485910     0.20000
H1486       H  0.17392151  0.20099072  0.66037456     0.18400
H1487       H  0.17946713  0.24186134  0.60850518     0.18300
H1488       H  0.08246131  0.19580885  0.71932426     0.14200
C1489       C  0.21574245  0.10758682  0.02770372     0.29700
C1490       C  0.20241055  0.08778224  0.01256637    -0.36700
C1491       C  0.17896836  0.09323532  0.99765452     0.15600
C1492       C  0.16936263  0.11652264  0.99827547     0.21500
C1493       C  0.18259999  0.13615685  0.01319937    -0.34800
C1494       C  0.20598279  0.13080965  0.02740924     0.15600
O1495       O  0.23867546  0.10721694  0.04031273    -0.26800
C1496       C  0.24355136  0.13055567  0.04799990     0.05300
C1497       C  0.22388358  0.14593551  0.04014868    -0.31700
O1498       O  0.14824262  0.11822857  0.98042478    -0.23500
C1499       C  0.14386414  0.09581393  0.96768022    -0.03500
C1500       C  0.16243830  0.07936536  0.97766620    -0.18000
H1501       H  0.21018214  0.06962212  0.01103452     0.20000
H1502       H  0.17554838  0.15461276  0.01221219     0.18400
H1503       H  0.22328773  0.16561408  0.04196113     0.18300
H1504       H  0.16432920  0.06047980  0.96921187     0.14200
C1505       C  0.01733446  0.75798722  0.58443169     0.29700
C1506       C  0.00203743  0.74371532  0.56211806    -0.36700
C1507       C  0.98639794  0.72825277  0.58140388     0.15600
C1508       C  0.98523940  0.72693842  0.62019703     0.21500
C1509       C  0.00090477  0.74129075  0.64285708    -0.34800
C1510       C  0.01701061  0.75681064  0.62332267     0.15600
O1511       O  0.03437484  0.77231858  0.57145637    -0.26800
C1512       C  0.04549390  0.78077110  0.60209316     0.05300
C1513       C  0.03542618  0.77187120  0.63548520    -0.31700
O1514       O  0.96783500  0.71189714  0.63163988    -0.23500
C1515       C  0.95822357  0.70346680  0.59943809    -0.03500
C1516       C  0.96938865  0.71297831  0.56761537    -0.18000
H1517       H  0.00252305  0.74440853  0.53159973     0.20000
H1518       H  0.00061153  0.74039590  0.67334715     0.18400
H1519       H  0.04188267  0.77458342  0.66407652     0.18300
H1520       H  0.96466463  0.71013166  0.53823966     0.14200
C1521       C  0.71015582  0.62168587  0.53379356     0.29700
C1522       C  0.68503138  0.62691080  0.52982477    -0.36700
C1523       C  0.67143091  0.61060626  0.50748496     0.15600
C1524       C  0.68172218  0.59030120  0.49057500     0.21500
C1525       C  0.70680488  0.58493317  0.49486847    -0.34800
C1526       C  0.72048462  0.60143965  0.51673286     0.15600
O1527       O  0.72666918  0.63580187  0.55012114    -0.26800
C1528       C  0.74788180  0.62443618  0.54353288     0.05300
C1529       C  0.74513006  0.60304238  0.52274149    -0.31700
O1530       O  0.66631260  0.57909512  0.46754394    -0.23500
C1531       C  0.64581150  0.59238036  0.46955057    -0.03500
C1532       C  0.64800915  0.61217082  0.49415059    -0.18000
H1533       H  0.67691776  0.64330467  0.54158571     0.20000
H1534       H  0.71534937  0.56970901  0.48036631     0.18400
H1535       H  0.75937551  0.59112897  0.51191690     0.18300
H1536       H  0.63493013  0.62675294  0.49900539     0.14200
C1537       C  0.85431958  0.74890747  0.38399283     0.29700
C1538       C  0.84542694  0.76925501  0.36365053    -0.36700
C1539       C  0.86273608  0.78187410  0.34157413     0.15600
C1540       C  0.88701106  0.77487057  0.33983081     0.21500
C1541       C  0.89573966  0.75456245  0.35958484    -0.34800
C1542       C  0.87859254  0.74208022  0.38136917     0.15600
O1543       O  0.84216421  0.73550472  0.40885096    -0.26800
C1544       C  0.85903676  0.71990608  0.42198438     0.05300
C1545       C  0.88186858  0.72327384  0.40550624    -0.31700
O1546       O  0.90043376  0.78970139  0.31947409    -0.23500
C1547       C  0.88475807  0.80665117  0.30751792    -0.03500
C1548       C  0.86090435  0.80265011  0.32024271    -0.18000
H1549       H  0.82657828  0.77528172  0.36579410     0.20000
H1550       H  0.91485568  0.74926277  0.35892742     0.18400
H1551       H  0.89893429  0.71409897  0.41217479     0.18300
H1552       H  0.84479596  0.81380149  0.31544522     0.14200
C1553       C  0.00016878  0.59145254  0.39823228     0.29700
C1554       C  0.97922498  0.58278900  0.41684531    -0.36700
C1555       C  0.96574590  0.60010019  0.43787184     0.15600
C1556       C  0.97261984  0.62416896  0.44066806     0.21500
C1557       C  0.99376605  0.63266630  0.42295348    -0.34800
C1558       C  0.00701041  0.61549705  0.40172472     0.15600
O1559       O  0.01347760  0.57946132  0.37287673    -0.26800
C1560       C  0.02901790  0.59610267  0.36011325     0.05300
C1561       C  0.02587338  0.61872491  0.37746780    -0.31700
O1562       O  0.95662963  0.63764472  0.45933083    -0.23500
C1563       C  0.93916383  0.62212184  0.46888663    -0.03500
C1564       C  0.94390417  0.59840792  0.45647555    -0.18000
H1565       H  0.97311147  0.56421142  0.41345861     0.20000
H1566       H  0.99882225  0.65167805  0.42397689     0.18400
H1567       H  0.03470759  0.63571035  0.37057244     0.18300
H1568       H  0.93263520  0.58245299  0.45986680     0.14200
C1569       C  0.86617927  0.52305682  0.76862576     0.29700
C1570       C  0.84857506  0.53604945  0.74758340    -0.36700
C1571       C  0.85372527  0.56066923  0.74038105     0.15600
C1572       C  0.87495527  0.57169054  0.75248215     0.21500
C1573       C  0.89233077  0.55883575  0.77415419    -0.34800
C1574       C  0.88702886  0.53430987  0.78178778     0.15600
O1575       O  0.86610624  0.49940655  0.77578857    -0.26800
C1576       C  0.88693305  0.49552629  0.79458383     0.05300
C1577       C  0.90069167  0.51658587  0.79895504    -0.31700
O1578       O  0.87754089  0.59382046  0.73847015    -0.23500
C1579       C  0.85747681  0.59729674  0.71759606    -0.03500
C1580       C  0.84191989  0.57728699  0.71814106    -0.18000
H1581       H  0.83245159  0.52730287  0.73625781     0.20000
H1582       H  0.90934486  0.56706731  0.78301423     0.18400
H1583       H  0.91885979  0.51823289  0.81086367     0.18300
H1584       H  0.82551052  0.57448287  0.70157088     0.14200
C1585       C  0.47890126  0.73629246  0.94004874     0.29700
C1586       C  0.49396870  0.75175124  0.96062876    -0.36700
C1587       C  0.51366352  0.76129354  0.94102979     0.15600
C1588       C  0.51846304  0.75617565  0.90356453     0.21500
C1589       C  0.50303025  0.74072156  0.88261851    -0.34800
C1590       C  0.48311694  0.73096693  0.90246678     0.15600
O1591       O  0.46010404  0.72480951  0.95379140    -0.26800
C1592       C  0.45187443  0.71181234  0.92492681     0.05300
C1593       C  0.46534436  0.71485634  0.89194947    -0.31700
O1594       O  0.53927349  0.76587404  0.89221156    -0.23500
C1595       C  0.54752491  0.77718631  0.92302530    -0.03500
C1596       C  0.53221376  0.77499140  0.95395253    -0.18000
H1597       H  0.49092464  0.75552431  0.99028156     0.20000
H1598       H  0.50669053  0.73606833  0.85344799     0.18400
H1599       H  0.46262244  0.70631375  0.86468479     0.18300
H1600       H  0.53509275  0.78143738  0.98255325     0.14200
C1601       C  0.62549879  0.73417164  0.13974941     0.29700
C1602       C  0.60659662  0.72100851  0.15636716    -0.36700
C1603       C  0.61372195  0.70122797  0.17852649     0.15600
C1604       C  0.63784575  0.69471774  0.18442001     0.21500
C1605       C  0.65695570  0.70815229  0.16791107    -0.34800
C1606       C  0.64977907  0.72809208  0.14535066     0.15600
O1607       O  0.62249099  0.75181216  0.11528840    -0.26800
C1608       C  0.64504737  0.75750660  0.10472274     0.05300
C1609       C  0.66294921  0.74347802  0.12279732    -0.31700
O1610       O  0.63999992  0.67512480  0.20594202    -0.23500
C1611       C  0.61688791  0.66921363  0.21371541    -0.03500
C1612       C  0.59990425  0.68486992  0.19725119    -0.18000
H1613       H  0.58753522  0.72547488  0.15140452     0.20000
H1614       H  0.67597750  0.70306860  0.17160355     0.18400
H1615       H  0.68247796  0.74327833  0.11776577     0.18300
H1616       H  0.58013363  0.68434998  0.19902840     0.14200
C1617       C  0.78427912  0.87022491  0.01660247     0.29700
C1618       C  0.79524454  0.88847567  0.03888415    -0.36700
C1619       C  0.82014053  0.88496832  0.04776537     0.15600
C1620       C  0.83317167  0.86478053  0.03568672     0.21500
C1621       C  0.82230432  0.84672498  0.01315654    -0.34800
C1622       C  0.79754809  0.85028709  0.00412142     0.15600
O1623       O  0.76086583  0.86876920  0.00750798    -0.26800
C1624       C  0.75925478  0.84784711  0.98844487     0.05300
C1625       C  0.78147280  0.83553259  0.98560209    -0.31700
O1626       O  0.85549983  0.86395615  0.04976978    -0.23500
C1627       C  0.85713884  0.88400189  0.07091959    -0.03500
C1628       C  0.83564862  0.89788864  0.07063780    -0.18000
H1629       H  0.78487786  0.90387789  0.04963353     0.20000
H1630       H  0.83226219  0.83055397  0.00439598     0.18400
H1631       H  0.78493480  0.81765149  0.97367877     0.18300
H1632       H  0.83154635  0.91417854  0.08683006     0.14200
C1633       C  0.74627125  0.73586337  0.80626160     0.29700
C1634       C  0.75227504  0.71273961  0.79119338    -0.36700
C1635       C  0.76483946  0.71254524  0.75655981     0.15600
C1636       C  0.77112203  0.73376244  0.73851522     0.21500
C1637       C  0.76528090  0.75679952  0.75365738    -0.34800
C1638       C  0.75265189  0.75699483  0.78805849     0.15600
O1639       O  0.73315975  0.74022655  0.83679822    -0.26800
C1640       C  0.73107208  0.76446105  0.83836423     0.05300
C1641       C  0.74304408  0.77589630  0.80878909    -0.31700
O1642       O  0.78292516  0.72966120  0.70678983    -0.23500
C1643       C  0.78433226  0.70547906  0.70389532    -0.03500
C1644       C  0.77327705  0.69373402  0.73416412    -0.18000
H1645       H  0.74708327  0.69608831  0.80515742     0.20000
H1646       H  0.76999157  0.77344291  0.73926358     0.18400
H1647       H  0.74337937  0.79512235  0.80229166     0.18300
H1648       H  0.77220061  0.67437634  0.73938360     0.14200
C1649       C  0.49449979  0.75860065  0.33071050     0.29700
C1650       C  0.51117346  0.74474421  0.30981212    -0.36700
C1651       C  0.52424996  0.72718631  0.32984815     0.15600
C1652       C  0.52123567  0.72325770  0.36798096     0.21500
C1653       C  0.50465809  0.73757138  0.38922877    -0.34800
C1654       C  0.49138783  0.75532875  0.36897908     0.15600
O1655       O  0.48060855  0.77597022  0.31707815    -0.26800
C1656       C  0.46818419  0.78425605  0.34669142     0.05300
C1657       C  0.47408347  0.77213383  0.38003687    -0.31700
O1658       O  0.53366949  0.70392979  0.37972707    -0.23500
C1659       C  0.54470387  0.69569531  0.34856794    -0.03500
C1660       C  0.53963814  0.70969638  0.31696486    -0.18000
H1661       H  0.51339433  0.74714454  0.27970932     0.20000
H1662       H  0.50180978  0.73462073  0.41905946     0.18400
H1663       H  0.46741165  0.77580283  0.40825024     0.18300
H1664       H  0.54482675  0.70617154  0.28794351     0.14200
C1665       C  0.39090611  0.03146846  0.28035590     0.29700
C1666       C  0.39809503  0.05462093  0.26835693    -0.36700
C1667       C  0.37991632  0.06921031  0.25169026     0.15600
C1668       C  0.35614634  0.06166422  0.24648297     0.21500
C1669       C  0.34874535  0.03850461  0.25938662    -0.34800
C1670       C  0.36701255  0.02386917  0.27664743     0.15600
O1671       O  0.40565918  0.01424648  0.29324058    -0.26800
C1672       C  0.39113214  0.99529748  0.29903560     0.05300
C1673       C  0.36680155  0.00022810  0.28926215    -0.31700
O1674       O  0.34305624  0.07744711  0.22614894    -0.23500
C1675       C  0.35871114  0.09544447  0.21878419    -0.03500
C1676       C  0.38176293  0.09113061  0.23442354    -0.18000
H1677       H  0.41691840  0.06048758  0.27037788     0.20000
H1678       H  0.33034697  0.03193811  0.25486587     0.18400
H1679       H  0.35163705  0.98767265  0.28878004     0.18300
H1680       H  0.39819586  0.10178315  0.23103061     0.14200
C1681       C  0.50630795  0.86682789  0.13516851     0.29700
C1682       C  0.51561941  0.84891654  0.11083702    -0.36700
C1683       C  0.53717894  0.85471281  0.09188802     0.15600
C1684       C  0.54897223  0.87667068  0.09627939     0.21500
C1685       C  0.53952485  0.89478117  0.12072827    -0.34800
C1686       C  0.51773374  0.88896761  0.13983427     0.15600
O1687       O  0.48728793  0.86429927  0.15738627    -0.26800
C1688       C  0.48603875  0.88514918  0.17652520     0.05300
C1689       C  0.50450875  0.90134057  0.16675116    -0.31700
O1690       O  0.56949364  0.87759872  0.07646111    -0.23500
C1691       C  0.57070836  0.85585273  0.05952922    -0.03500
C1692       C  0.55103202  0.84101576  0.06812540    -0.18000
H1693       H  0.50695973  0.83136242  0.10765300     0.20000
H1694       H  0.54874018  0.91193665  0.12511640     0.18400
H1695       H  0.50853441  0.91885096  0.17936528     0.18300
H1696       H  0.54765754  0.82255293  0.05870067     0.14200
C1697       C  0.36595405  0.77905794  0.19231984     0.29700
C1698       C  0.34705905  0.76790738  0.17153408    -0.36700
C1699       C  0.35350941  0.74653467  0.15163880     0.15600
C1700       C  0.37690785  0.73688938  0.15251096     0.21500
C1701       C  0.39553592  0.74767226  0.17378944    -0.34800
C1702       C  0.38917873  0.76902862  0.19315525     0.15600
O1703       O  0.36474881  0.80019519  0.21039500    -0.26800
C1704       C  0.38757389  0.80367513  0.22254454     0.05300
C1705       C  0.40343043  0.78476747  0.21276684    -0.31700
O1706       O  0.37995893  0.71886219  0.12840446    -0.23500
C1707       C  0.35823679  0.71649676  0.11190872    -0.03500
C1708       C  0.34089070  0.73310671  0.12546205    -0.18000
H1709       H  0.32898565  0.77598694  0.16945323     0.20000
H1710       H  0.41410863  0.74067160  0.17345224     0.18400
H1711       H  0.42286639  0.78321021  0.21836459     0.18300
H1712       H  0.32254922  0.73635665  0.11496291     0.14200
C1713       C  0.29607473  0.85218001  0.53158243     0.29700
C1714       C  0.32124602  0.84731739  0.52730212    -0.36700
C1715       C  0.33442776  0.86375702  0.50495351     0.15600
C1716       C  0.32365330  0.88370133  0.48800517     0.21500
C1717       C  0.29849754  0.88860369  0.49238925    -0.34800
C1718       C  0.28529470  0.87213062  0.51463995     0.15600
O1719       O  0.27998273  0.83826195  0.54895593    -0.26800
C1720       C  0.25862808  0.84962226  0.54354121     0.05300
C1721       C  0.26082779  0.87063952  0.52206410    -0.31700
O1722       O  0.33883401  0.89525650  0.46532170    -0.23500
C1723       C  0.35968284  0.88257569  0.46763492    -0.03500
C1724       C  0.35794611  0.86282928  0.49207628    -0.18000
H1725       H  0.32977081  0.83126767  0.53928570     0.20000
H1726       H  0.28962322  0.90366712  0.47816502     0.18400
H1727       H  0.24632175  0.88244758  0.51192541     0.18300
H1728       H  0.37144518  0.84868880  0.49717018     0.14200
C1729       C  0.49642925  0.21008281  0.68850830     0.29700
C1730       C  0.47904561  0.22399523  0.70796347    -0.36700
C1731       C  0.47050744  0.24471889  0.68944328     0.15600
C1732       C  0.47823538  0.25132161  0.65388769     0.21500
C1733       C  0.49547844  0.23704173  0.63401783    -0.34800
C1734       C  0.50433779  0.21628797  0.65287718     0.15600
O1735       O  0.50800115  0.19109587  0.70213293    -0.26800
C1736       C  0.52362178  0.18477746  0.67509559     0.05300
C1737       C  0.52218655  0.19970143  0.64349102    -0.31700
O1738       O  0.46969473  0.27294500  0.64394501    -0.23500
C1739       C  0.45653017  0.28008190  0.67368334    -0.03500
C1740       C  0.45629547  0.26315282  0.70259038    -0.18000
H1741       H  0.47347454  0.21960324  0.73641385     0.20000
H1742       H  0.50237267  0.24237388  0.60669954     0.18400
H1743       H  0.53309119  0.19887002  0.61804741     0.18300
H1744       H  0.44832212  0.26502248  0.73042486     0.14200
C1745       C  0.50184290  0.11625113  0.89993178     0.29700
C1746       C  0.48898072  0.13515774  0.91758297    -0.36700
C1747       C  0.46901967  0.12828378  0.93937477     0.15600
C1748       C  0.46206755  0.10438963  0.94400848     0.21500
C1749       C  0.47521583  0.08525408  0.92650358    -0.34800
C1750       C  0.49532818  0.09219143  0.90426379     0.15600
O1751       O  0.51946655  0.11914151  0.87536195    -0.26800
C1752       C  0.52474546  0.09672151  0.86361256     0.05300
C1753       C  0.51041276  0.07903123  0.88078522    -0.31700
O1754       O  0.44190670  0.10255860  0.96441977    -0.23500
C1755       C  0.43608679  0.12563794  0.97252841    -0.03500
C1756       C  0.45239797  0.14228474  0.95774933    -0.18000
H1757       H  0.49365488  0.15406502  0.91336186     0.20000
H1758       H  0.46966413  0.06645778  0.92893885     0.18400
H1759       H  0.50978154  0.05973525  0.87453910     0.18300
H1760       H  0.45184242  0.16196392  0.95973121     0.14200
C1761       C  0.63767405  0.95746870  0.76946194     0.29700
C1762       C  0.65521339  0.94606134  0.79279612    -0.36700
C1763       C  0.65266431  0.92078182  0.79783469     0.15600
C1764       C  0.63399997  0.90775445  0.78122187     0.21500
C1765       C  0.61692507  0.91902278  0.75713916    -0.34800
C1766       C  0.61954650  0.94418986  0.75192513     0.15600
O1767       O  0.63498562  0.98116253  0.76406546    -0.26800
C1768       C  0.61519696  0.98301540  0.74212040     0.05300
C1769       C  0.60487665  0.96058959  0.73363929    -0.31700
O1770       O  0.63298243  0.88513138  0.79347845    -0.23500
C1771       C  0.65145087  0.88330483  0.81792539    -0.03500
C1772       C  0.66452702  0.90492773  0.82148918    -0.18000
H1773       H  0.66909709  0.95637334  0.80754476     0.20000
H1774       H  0.60184015  0.90906155  0.74486277     0.18400
H1775       H  0.58807355  0.95706224  0.71841979     0.18300
H1776       H  0.67912036  0.90899216  0.84118303     0.14200
C1777       C  0.47707069  0.97773266  0.50506586     0.29700
C1778       C  0.47468249  0.98913103  0.54057707    -0.36700
C1779       C  0.49644627  0.99787601  0.55712061     0.15600
C1780       C  0.51906215  0.99559927  0.54012664     0.21500
C1781       C  0.52143410  0.98422292  0.50475322    -0.34800
C1782       C  0.49974011  0.97556463  0.48824027     0.15600
O1783       O  0.45937127  0.96760463  0.48464966    -0.26800
C1784       C  0.47100560  0.95885706  0.45433891     0.05300
C1785       C  0.49607920  0.96344207  0.45530031    -0.31700
O1786       O  0.53687464  0.00574001  0.56008336    -0.23500
C1787       C  0.52555252  0.01471565  0.59042755    -0.03500
C1788       C  0.50039502  0.01026061  0.58996077    -0.18000
H1789       H  0.45711265  0.99109872  0.55435294     0.20000
H1790       H  0.53899653  0.98229842  0.49093994     0.18400
H1791       H  0.50985298  0.95788196  0.43501151     0.18300
H1792       H  0.48681343  0.01607283  0.61038402     0.14200
C1793       C  0.64411203  0.19666037  0.83920186     0.29700
C1794       C  0.66308819  0.20653169  0.86148711    -0.36700
C1795       C  0.65709694  0.22760808  0.88256928     0.15600
C1796       C  0.63401750  0.23796852  0.88154041     0.21500
C1797       C  0.61531963  0.22837220  0.85915535    -0.34800
C1798       C  0.62126990  0.20751645  0.83835402     0.15600
O1799       O  0.64485835  0.17619965  0.81920550    -0.26800
C1800       C  0.62215162  0.17412432  0.80565513     0.05300
C1801       C  0.60684857  0.19320103  0.81660025    -0.31700
O1802       O  0.63137323  0.25594689  0.90571686    -0.23500
C1803       C  0.65302998  0.25765622  0.92256236    -0.03500
C1804       C  0.66997684  0.24053500  0.90921289    -0.18000
H1805       H  0.68092046  0.19791190  0.86332691     0.20000
H1806       H  0.59703617  0.23610707  0.85916014     0.18400
H1807       H  0.58756208  0.19568320  0.81053240     0.18300
H1808       H  0.68824981  0.23688794  0.91968165     0.14200
C1809       C  0.70410703  0.11772473  0.49719547     0.29700
C1810       C  0.67859369  0.12073655  0.50025119    -0.36700
C1811       C  0.66674600  0.10596865  0.52681705     0.15600
C1812       C  0.67902045  0.08905179  0.54857360     0.21500
C1813       C  0.70451130  0.08591027  0.54533362    -0.34800
C1814       C  0.71641148  0.10094286  0.51918750     0.15600
O1815       O  0.71911441  0.13144569  0.47725349    -0.26800
C1816       C  0.74134321  0.12328569  0.48649183     0.05300
C1817       C  0.74071736  0.10443142  0.51258727    -0.31700
O1818       O  0.66472439  0.07889765  0.57412384    -0.23500
C1819       C  0.64296523  0.08951216  0.56884944    -0.03500
C1820       C  0.64323354  0.10647609  0.53970295    -0.18000
H1821       H  0.66883218  0.13458071  0.48450815     0.20000
H1822       H  0.71456303  0.07354365  0.56341732     0.18400
H1823       H  0.75605894  0.09565737  0.52647273     0.18300
H1824       H  0.62861211  0.11863211  0.53102121     0.14200
loop_ 
_geom_bond_atom_site_label_1 
_geom_bond_atom_site_label_2 
_geom_bond_distance 
_geom_bond_site_symmetry_2 
_ccdc_geom_bond_type 
Zr1           O2   2.441       .  S
Zr1           O3   2.495       .  S
Zr1           O4   2.479       .  S
Zr1           O7   2.481       .  S
Zr1           O9   2.389       .  S
Zr1          O10   2.393       .  S
Zr1          O11   2.431       .  S
Zr1          O12   2.404       .  S
O2           H58   0.991       .  S
O2           H66   0.990       .  S
O3           C23   1.294       .  A
O4           C25   1.290       .  A
O5          Zr15   2.432       .  S
O5           C24   1.285       .  A
O6          Zr14   2.428       .  S
O6           C25   1.283       .  A
O7           C24   1.293       .  A
O8          Zr16   2.395       .  S
O8           C23   1.276       .  A
O9          Zr14   2.406       .  S
O9          Zr16   2.387       .  S
O10         Zr15   2.398       .  S
O10         Zr16   2.384       .  S
O10          H45   0.965       .  S
O11         Zr14   2.409       .  S
O11         Zr31   2.409       .  S
O11          H48   0.964       .  S
O12         Zr15   2.389       .  S
O12         Zr31   2.391       .  S
Zr13         O38   2.443       .  S
Zr13         O32   2.424       .  S
Zr13         O40   2.416       .  S
Zr13         O28   2.418       .  S
Zr13         O19   2.391       .  S
Zr13         O20   2.403       .  S
Zr13         O21   2.372       .  S
Zr13         O22   2.378       .  S
Zr14         O33   2.436       .  S
Zr14         O26   2.436       .  S
Zr14         O27   2.454       .  S
Zr14         O20   2.392       .  S
Zr14         O21   2.399       .  S
Zr15         O17   2.436       .  S
Zr15         O39   2.437       .  S
Zr15         O41   2.450       .  S
Zr15         O19   2.387       .  S
Zr15         O22   2.398       .  S
Zr16         O42   2.435       .  S
Zr16         O43   2.438       .  S
Zr16         O18   2.437       .  S
Zr16         O19   2.375       .  S
Zr16         O20   2.384       .  S
O17          H54   0.990       .  S
O18          H49   0.990       .  S
O18          H63   0.990       .  S
O20          H46   0.965       .  S
O21         Zr31   2.380       .  S
O22         Zr31   2.381       .  S
O22          H47   0.966       .  S
C23        C1787   1.486       .  S
C24        C1819   1.484       .  S
C25        C1768   1.476   1_545  S
O26          H62   0.990       .  S
O27          C29   1.287       .  A
O28          C29   1.281       .  A
C29        C1752   1.469       .  S
O30         Zr31   2.439       .  S
O30          H59   0.990       .  S
Zr31         O34   2.437       .  S
Zr31         O35   2.439       .  S
Zr31         O36   2.442       .  S
O32          C37   1.281       .  A
O33          H50   0.990       .  S
O33          H65   0.990       .  S
O34          H51   0.990       .  S
O35          H55   0.990       .  S
O35          H64   0.990       .  S
O36          C37   1.283       .  A
C37        C1800   1.476       .  S
O38          H57   0.990       .  S
O38          H61   0.990       .  S
O39          H53   0.990       .  S
O39          H60   0.990       .  S
O40          C44   1.280       .  A
O41          C44   1.286       .  A
O42          H52   0.990       .  S
O43          H56   0.990       .  S
C44        C1736   1.464       .  S
Zr67         O68   2.441       .  S
Zr67         O69   2.497       .  S
Zr67         O70   2.482       .  S
Zr67         O73   2.482       .  S
Zr67         O75   2.390       .  S
Zr67         O76   2.394       .  S
Zr67         O77   2.432       .  S
Zr67         O78   2.423       .  S
O68         H124   0.990       .  S
O68         H132   0.990       .  S
O69          C89   1.294       .  A
O70          C91   1.292       .  A
O71         Zr81   2.428       .  S
O71          C90   1.283       .  A
O72         Zr80   2.430       .  S
O72          C91   1.284       .  A
O73          C90   1.292       .  A
O74         Zr82   2.381       .  S
O74          C89   1.275       .  A
O75         Zr80   2.405       .  S
O75         Zr82   2.390       .  S
O76         Zr81   2.400       .  S
O76         Zr82   2.375       .  S
O76         H111   0.966       .  S
O77         Zr80   2.411       .  S
O77         Zr97   2.392       .  S
O77         H114   0.963       .  S
O78         Zr81   2.402       .  S
O78         Zr97   2.410       .  S
Zr79        O104   2.441       .  S
Zr79         O98   2.416       .  S
Zr79        O106   2.412       .  S
Zr79         O94   2.402       .  S
Zr79         O85   2.393       .  S
Zr79         O86   2.390       .  S
Zr79         O87   2.370       .  S
Zr79         O88   2.380       .  S
Zr80         O99   2.437       .  S
Zr80         O92   2.434       .  S
Zr80         O93   2.465       .  S
Zr80         O86   2.388       .  S
Zr80         O87   2.391       .  S
Zr81         O83   2.435       .  S
Zr81        O105   2.437       .  S
Zr81        O107   2.463       .  S
Zr81         O85   2.382       .  S
Zr81         O88   2.397       .  S
Zr82        O108   2.435       .  S
Zr82        O109   2.436       .  S
Zr82         O84   2.437       .  S
Zr82         O85   2.380       .  S
Zr82         O86   2.361       .  S
O83         H120   0.990       .  S
O84         H115   0.990       .  S
O84         H129   0.990       .  S
O86         H112   0.963       .  S
O87         Zr97   2.377       .  S
O88         Zr97   2.377       .  S
O88         H113   0.966       .  S
C89        C1784   1.486       .  S
C90        C1672   1.484       .  S
C91        C1723   1.482       .  S
O92         H128   0.990       .  S
O93          C95   1.290       .  A
O94          C95   1.280       .  A
C95        C1656   1.467       .  S
O96         Zr97   2.439       .  S
O96         H125   0.990       .  S
Zr97        O100   2.438       .  S
Zr97        O101   2.441       .  S
Zr97        O102   2.446       .  S
O98         C103   1.282       .  A
O99         H116   0.990       .  S
O99         H131   0.990       .  S
O100        H117   0.990       .  S
O101        H121   0.990       .  S
O101        H130   0.990       .  S
O102        C103   1.284       .  A
C103       C1704   1.474       .  S
O104        H123   0.990       .  S
O104        H127   0.991       .  S
O105        H119   0.990       .  S
O105        H126   0.990       .  S
O106        C110   1.280       .  A
O107        C110   1.289       .  A
O108        H118   0.990       .  S
O109        H122   0.990       .  S
C110       C1688   1.473       .  S
Zr133       O134   2.441       .  S
Zr133       O135   2.484       .  S
Zr133       O136   2.468       .  S
Zr133       O139   2.474       .  S
Zr133       O141   2.390       .  S
Zr133       O142   2.394       .  S
Zr133       O143   2.426       .  S
Zr133       O144   2.402       .  S
O134        H190   0.990       .  S
O134        H198   0.991       .  S
O135        C155   1.292       .  A
O136        C157   1.289       .  A
O137       Zr147   2.436       .  S
O137        C156   1.285       .  A
O138       Zr146   2.424       .  S
O138        C157   1.282   1_554  A
O139        C156   1.292       .  A
O140       Zr148   2.396       .  S
O140        C155   1.275       .  A
O141       Zr146   2.409   1_556  S
O141       Zr148   2.386       .  S
O142       Zr147   2.398       .  S
O142       Zr148   2.385       .  S
O142        H177   0.966       .  S
O143       Zr146   2.412   1_556  S
O143       Zr163   2.401       .  S
O143        H180   0.964       .  S
O144       Zr147   2.389       .  S
O144       Zr163   2.390       .  S
Zr145       O170   2.443   1_556  S
Zr145       O164   2.420   1_556  S
Zr145       O172   2.396       .  S
Zr145       O160   2.419   1_556  S
Zr145       O151   2.400       .  S
Zr145       O152   2.394       .  S
Zr145       O153   2.366   1_556  S
Zr145       O154   2.377       .  S
Zr146       O165   2.439       .  S
Zr146       O158   2.434       .  S
Zr146       O159   2.463       .  S
Zr146       O152   2.393   1_554  S
Zr146       O153   2.395       .  S
Zr147       O149   2.436       .  S
Zr147       O171   2.436       .  S
Zr147       O173   2.444       .  S
Zr147       O151   2.390       .  S
Zr147       O154   2.399       .  S
Zr148       O174   2.441       .  S
Zr148       O175   2.436       .  S
Zr148       O150   2.439       .  S
Zr148       O151   2.387       .  S
Zr148       O152   2.384       .  S
O149        H186   0.990       .  S
O150        H181   0.990       .  S
O150        H195   0.990       .  S
O152        H178   0.964   1_556  S
O153       Zr163   2.378   1_554  S
O154       Zr163   2.379       .  S
O154        H179   0.966       .  S
C155       C1640   1.481       .  S
C156       C1771   1.482       .  S
C157       C1624   1.470       .  S
O158        H194   0.990       .  S
O159        C161   1.289       .  A
O160        C161   1.282       .  A
C161       C1608   1.476       .  S
O162       Zr163   2.435       .  S
O162        H191   0.991       .  S
Zr163       O166   2.436   1_556  S
Zr163       O167   2.439       .  S
Zr163       O168   2.442   1_556  S
O164        C169   1.281       .  A
O165        H182   0.990       .  S
O165        H197   0.990       .  S
O166        H183   0.990       .  S
O167        H187   0.990       .  S
O167        H196   0.990       .  S
O168        C169   1.283       .  A
C169       C1691   1.475       .  S
O170        H189   0.991       .  S
O170        H193   0.990       .  S
O171        H185   0.990       .  S
O171        H192   0.990       .  S
O172        C176   1.277       .  A
O173        C176   1.284       .  A
O174        H184   0.990       .  S
O175        H188   0.990       .  S
C176       C1595   1.463       .  S
Zr199       O200   2.442       .  S
Zr199       O201   2.486       .  S
Zr199       O202   2.470       .  S
Zr199       O205   2.463       .  S
Zr199       O207   2.386       .  S
Zr199       O208   2.396       .  S
Zr199       O209   2.422       .  S
Zr199       O210   2.420       .  S
O200        H256   0.990       .  S
O200        H264   0.991       .  S
O201        C221   1.293       .  A
O202        C223   1.291       .  A
O203       Zr213   2.437       .  S
O203        C222   1.286       .  A
O204       Zr212   2.447       .  S
O204        C223   1.286       .  A
O205        C222   1.290       .  A
O206       Zr214   2.394       .  S
O206        C221   1.276       .  A
O207       Zr212   2.403       .  S
O207       Zr214   2.388       .  S
O208       Zr213   2.408       .  S
O208       Zr214   2.375       .  S
O208        H243   0.966       .  S
O209       Zr212   2.415       .  S
O209       Zr229   2.391       .  S
O209        H246   0.964       .  S
O210       Zr213   2.404       .  S
O210       Zr229   2.397       .  S
Zr211       O236   2.441       .  S
Zr211       O230   2.427       .  S
Zr211       O238   2.410       .  S
Zr211       O226   2.408       .  S
Zr211       O217   2.391       .  S
Zr211       O218   2.397       .  S
Zr211       O219   2.370       .  S
Zr211       O220   2.374       .  S
Zr212       O231   2.435       .  S
Zr212       O224   2.437       .  S
Zr212       O225   2.466       .  S
Zr212       O218   2.400       .  S
Zr212       O219   2.401       .  S
Zr213       O215   2.437       .  S
Zr213       O237   2.434       .  S
Zr213       O239   2.483       .  S
Zr213       O217   2.376       .  S
Zr213       O220   2.401       .  S
Zr214       O240   2.438       .  S
Zr214       O241   2.436       .  S
Zr214       O216   2.440       .  S
Zr214       O217   2.383       .  S
Zr214       O218   2.382       .  S
O215        H252   0.990       .  S
O216        H247   0.990       .  S
O216        H261   0.990       .  S
O218        H244   0.965       .  S
O219       Zr229   2.383       .  S
O220       Zr229   2.374       .  S
O220        H245   0.966       .  S
C221       C1643   1.482       .  S
C222       C1528   1.478       .  S
C223       C1579   1.484       .  S
O224        H260   0.990       .  S
O225        C227   1.288       .  A
O226        C227   1.280       .  A
C227       C1515   1.478       .  S
O228       Zr229   2.440       .  S
O228        H257   0.990       .  S
Zr229       O232   2.437       .  S
Zr229       O233   2.439       .  S
Zr229       O234   2.438       .  S
O230        C235   1.282       .  A
O231        H248   0.990       .  S
O231        H263   0.990       .  S
O232        H249   0.990       .  S
O233        H253   0.990       .  S
O233        H262   0.990       .  S
O234        C235   1.284       .  A
C235       C1563   1.476       .  S
O236        H255   0.991       .  S
O236        H259   0.990       .  S
O237        H251   0.990       .  S
O237        H258   0.990       .  S
O238        C242   1.282       .  A
O239        C242   1.292       .  A
O240        H250   0.990       .  S
O241        H254   0.990       .  S
C242       C1544   1.489       .  S
Zr265       O266   2.442       .  S
Zr265       O267   2.496       .  S
Zr265       O268   2.497       .  S
Zr265       O271   2.462       .  S
Zr265       O273   2.383       .  S
Zr265       O274   2.400       .  S
Zr265       O275   2.424       .  S
Zr265       O276   2.428       .  S
O266        H322   0.990       .  S
O266        H330   0.991       .  S
O267        C287   1.294       .  A
O268        C289   1.294       .  A
O269       Zr279   2.429       .  S
O269        C288   1.283       .  A
O270       Zr278   2.428       .  S
O270        C289   1.284       .  A
O271        C288   1.289       .  A
O272       Zr280   2.389       .  S
O272        C287   1.275       .  A
O273       Zr278   2.405       .  S
O273       Zr280   2.391       .  S
O274       Zr279   2.409       .  S
O274       Zr280   2.374       .  S
O274        H309   0.966       .  S
O275       Zr278   2.410       .  S
O275       Zr295   2.397       .  S
O275        H312   0.963       .  S
O276       Zr279   2.405       .  S
O276       Zr295   2.406       .  S
Zr277       O302   2.444       .  S
Zr277       O296   2.428       .  S
Zr277       O304   2.395       .  S
Zr277       O292   2.405       .  S
Zr277       O283   2.396       .  S
Zr277       O284   2.400       .  S
Zr277       O285   2.364       .  S
Zr277       O286   2.374       .  S
Zr278       O297   2.436       .  S
Zr278       O290   2.434       .  S
Zr278       O291   2.452       .  S
Zr278       O284   2.395       .  S
Zr278       O285   2.402       .  S
Zr279       O281   2.435       .  S
Zr279       O303   2.440       .  S
Zr279       O305   2.469       .  S
Zr279       O283   2.381       .  S
Zr279       O286   2.401       .  S
Zr280       O306   2.435       .  S
Zr280       O307   2.437   1_455  S
Zr280       O282   2.437       .  S
Zr280       O283   2.383       .  S
Zr280       O284   2.376       .  S
O281        H318   0.990       .  S
O282        H313   0.991   1_455  S
O282        H327   0.990       .  S
O284        H310   0.964       .  S
O285       Zr295   2.382       .  S
O286       Zr295   2.377       .  S
O286        H311   0.966       .  S
C287       C1467   1.489       .  S
C288       C1448   1.474   1_545  S
C289       C1499   1.489       .  S
O290        H326   0.990       .  S
O291        C293   1.286       .  A
O292        C293   1.278       .  A
C293       C1419   1.464       .  S
O294       Zr295   2.437       .  S
O294        H323   0.990       .  S
Zr295       O298   2.436       .  S
Zr295       O299   2.440       .  S
Zr295       O300   2.452       .  S
O296        C301   1.282       .  A
O297        H314   0.990       .  S
O297        H329   0.990       .  S
O298        H315   0.990       .  S
O299        H319   0.990       .  S
O299        H328   0.989       .  S
O300        C301   1.285       .  A
C301       C1483   1.484       .  S
O302        H321   0.991       .  S
O302        H325   0.991       .  S
O303        H317   0.990       .  S
O303        H324   0.989       .  S
O304        C308   1.277       .  A
O305        C308   1.290       .  A
O306        H316   0.990       .  S
O307        H320   0.990       .  S
C308       C1432   1.472       .  S
Zr331       O332   2.442       .  S
Zr331       O333   2.506       .  S
Zr331       O334   2.466       .  S
Zr331       O337   2.479       .  S
Zr331       O339   2.391       .  S
Zr331       O340   2.393       .  S
Zr331       O341   2.437       .  S
Zr331       O342   2.406       .  S
O332        H388   0.990       .  S
O332        H396   0.991       .  S
O333        C353   1.296       .  A
O334        C355   1.287       .  A
O335       Zr345   2.430       .  S
O335        C354   1.284       .  A
O336       Zr344   2.436       .  S
O336        C355   1.284       .  A
O337        C354   1.293       .  A
O338       Zr346   2.392       .  S
O338        C353   1.275       .  A
O339       Zr344   2.406       .  S
O339       Zr346   2.382       .  S
O340       Zr345   2.400       .  S
O340       Zr346   2.390       .  S
O340        H375   0.966       .  S
O341       Zr344   2.411       .  S
O341       Zr361   2.414       .  S
O341        H378   0.965       .  S
O342       Zr345   2.387       .  S
O342       Zr361   2.397       .  S
Zr343       O368   2.444       .  S
Zr343       O362   2.442       .  S
Zr343       O370   2.408       .  S
Zr343       O358   2.404       .  S
Zr343       O349   2.395       .  S
Zr343       O350   2.403       .  S
Zr343       O351   2.373       .  S
Zr343       O352   2.371       .  S
Zr344       O363   2.436       .  S
Zr344       O356   2.436       .  S
Zr344       O357   2.469       .  S
Zr344       O350   2.392       .  S
Zr344       O351   2.402       .  S
Zr345       O347   2.435       .  S
Zr345       O369   2.440       .  S
Zr345       O371   2.446       .  S
Zr345       O349   2.389       .  S
Zr345       O352   2.400       .  S
Zr346       O372   2.435       .  S
Zr346       O373   2.435   1_655  S
Zr346       O348   2.438   1_655  S
Zr346       O349   2.388       .  S
Zr346       O350   2.380       .  S
O347        H384   0.990       .  S
O348        H379   0.990       .  S
O348        H393   0.990   1_455  S
O350        H376   0.965       .  S
O351       Zr361   2.374       .  S
O352       Zr361   2.383       .  S
O352        H377   0.966       .  S
C353       C1464   1.491       .  S
C354       C1627   1.480       .  S
C355       C1384   1.475       .  S
O356        H392   0.990       .  S
O357        C359   1.290       .  A
O358        C359   1.279       .  A
C359       C1403   1.472       .  S
O360       Zr361   2.440       .  S
O360        H389   0.990       .  S
Zr361       O364   2.437       .  S
Zr361       O365   2.438       .  S
Zr361       O366   2.453       .  S
O362        C367   1.284       .  A
O363        H380   0.990       .  S
O363        H395   0.990       .  S
O364        H381   0.990       .  S
O365        H385   0.990       .  S
O365        H394   0.990       .  S
O366        C367   1.286       .  A
C367       C1547   1.487       .  S
O368        H387   0.990       .  S
O368        H391   0.991       .  S
O369        H383   0.990       .  S
O369        H390   0.990       .  S
O370        C374   1.278       .  A
O371        C374   1.285       .  A
O372        H382   0.990       .  S
O373        H386   0.990       .  S
C374       C1368   1.465       .  S
Zr397       O398   2.441       .  S
Zr397       O399   2.493       .  S
Zr397       O400   2.482       .  S
Zr397       O403   2.475       .  S
Zr397       O405   2.389       .  S
Zr397       O406   2.393       .  S
Zr397       O407   2.431       .  S
Zr397       O408   2.418       .  S
O398        H454   0.990       .  S
O398        H462   0.991       .  S
O399        C419   1.293       .  A
O400        C421   1.292       .  A
O401       Zr411   2.422       .  S
O401        C420   1.282       .  A
O402       Zr410   2.432       .  S
O402        C421   1.284       .  A
O403        C420   1.291       .  A
O404       Zr412   2.371       .  S
O404        C419   1.273       .  A
O405       Zr410   2.400       .  S
O405       Zr412   2.390       .  S
O406       Zr411   2.400       .  S
O406       Zr412   2.379       .  S
O406        H441   0.966       .  S
O407       Zr410   2.412       .  S
O407       Zr427   2.397       .  S
O407        H444   0.964       .  S
O408       Zr411   2.396       .  S
O408       Zr427   2.405       .  S
Zr409       O434   2.442       .  S
Zr409       O428   2.414       .  S
Zr409       O436   2.412       .  S
Zr409       O424   2.417       .  S
Zr409       O415   2.390       .  S
Zr409       O416   2.395       .  S
Zr409       O417   2.372       .  S
Zr409       O418   2.378       .  S
Zr410       O429   2.436       .  S
Zr410       O422   2.435       .  S
Zr410       O423   2.457       .  S
Zr410       O416   2.394       .  S
Zr410       O417   2.400       .  S
Zr411       O413   2.434       .  S
Zr411       O435   2.440       .  S
Zr411       O437   2.445       .  S
Zr411       O415   2.380       .  S
Zr411       O418   2.398       .  S
Zr412       O438   2.435       .  S
Zr412       O439   2.437       .  S
Zr412       O414   2.437       .  S
Zr412       O415   2.371       .  S
Zr412       O416   2.370       .  S
O413        H450   0.990       .  S
O414        H445   0.991       .  S
O414        H459   0.990       .  S
O416        H442   0.965       .  S
O417       Zr427   2.380       .  S
O418       Zr427   2.371       .  S
O418        H443   0.966       .  S
C419       C1352   1.481       .  S
C420       C1720   1.478       .  S
C421       C1451   1.483       .  S
O422        H458   0.990       .  S
O423        C425   1.287       .  A
O424        C425   1.281       .  A
C425       C1512   1.470       .  S
O426       Zr427   2.435       .  S
O426        H455   0.990       .  S
Zr427       O430   2.436       .  S
Zr427       O431   2.438       .  S
Zr427       O432   2.453       .  S
O428        C433   1.281       .  A
O429        H446   0.990       .  S
O429        H461   0.990       .  S
O430        H447   0.990       .  S
O431        H451   0.990       .  S
O431        H460   0.990       .  S
O432        C433   1.285       .  A
C433       C1400   1.479       .  S
O434        H453   0.991       .  S
O434        H457   0.990       .  S
O435        H449   0.990       .  S
O435        H456   0.990       .  S
O436        C440   1.281       .  A
O437        C440   1.286       .  A
O438        H448   0.990       .  S
O439        H452   0.990       .  S
C440       C1336   1.465       .  S
Zr463       O464   2.441       .  S
Zr463       O465   2.496       .  S
Zr463       O466   2.470       .  S
Zr463       O469   2.495       .  S
Zr463       O471   2.395       .  S
Zr463       O472   2.390       .  S
Zr463       O473   2.436       .  S
Zr463       O474   2.405       .  S
O464        H520   0.991       .  S
O464        H528   0.990       .  S
O465        C485   1.293       .  A
O466        C487   1.289       .  A
O467       Zr477   2.413       .  S
O467        C486   1.281       .  A
O468       Zr476   2.417       .  S
O468        C487   1.281   1_554  A
O469        C486   1.295       .  A
O470       Zr478   2.376       .  S
O470        C485   1.273       .  A
O471       Zr476   2.407   1_556  S
O471       Zr478   2.381       .  S
O472       Zr477   2.395       .  S
O472       Zr478   2.389       .  S
O472        H507   0.966       .  S
O473       Zr476   2.414   1_556  S
O473       Zr493   2.401       .  S
O473        H510   0.964       .  S
O474       Zr477   2.390       .  S
O474       Zr493   2.398       .  S
Zr475       O500   2.443   1_556  S
Zr475       O494   2.422   1_556  S
Zr475       O502   2.415       .  S
Zr475       O490   2.416   1_556  S
Zr475       O481   2.391       .  S
Zr475       O482   2.398       .  S
Zr475       O483   2.375   1_556  S
Zr475       O484   2.376       .  S
Zr476       O495   2.439       .  S
Zr476       O488   2.435       .  S
Zr476       O489   2.461       .  S
Zr476       O482   2.390   1_554  S
Zr476       O483   2.396       .  S
Zr477       O479   2.440       .  S
Zr477       O501   2.435       .  S
Zr477       O503   2.431       .  S
Zr477       O481   2.387       .  S
Zr477       O484   2.395       .  S
Zr478       O504   2.438       .  S
Zr478       O505   2.435       .  S
Zr478       O480   2.437       .  S
Zr478       O481   2.374       .  S
Zr478       O482   2.378       .  S
O479        H516   0.990       .  S
O480        H511   0.990       .  S
O480        H525   0.990       .  S
O482        H508   0.965   1_556  S
O483       Zr493   2.379   1_554  S
O484       Zr493   2.379       .  S
O484        H509   0.965       .  S
C485       C1355   1.482       .  S
C486       C1323   1.484       .  S
C487       C1288   1.466       .  S
O488        H524   0.990       .  S
O489        C491   1.287       .  A
O490        C491   1.280       .  A
C491       C1707   1.471       .  S
O492       Zr493   2.439       .  S
O492        H521   0.991       .  S
Zr493       O496   2.438   1_556  S
Zr493       O497   2.440       .  S
Zr493       O498   2.437   1_556  S
O494        C499   1.281       .  A
O495        H512   0.989       .  S
O495        H527   0.990       .  S
O496        H513   0.990       .  S
O497        H517   0.990       .  S
O497        H526   0.990       .  S
O498        C499   1.283       .  A
C499       C1307   1.468       .  S
O500        H519   0.990       .  S
O500        H523   0.991       .  S
O501        H515   0.990       .  S
O501        H522   0.991       .  S
O502        C506   1.280       .  A
O503        C506   1.282       .  A
O504        H514   0.990       .  S
O505        H518   0.990       .  S
C506       C1592   1.457       .  S
Zr529       O530   2.441       .  S
Zr529       O531   2.484       .  S
Zr529       O532   2.484       .  S
Zr529       O535   2.488       .  S
Zr529       O537   2.391       .  S
Zr529       O538   2.396       .  S
Zr529       O539   2.430       .  S
Zr529       O540   2.403       .  S
O530        H586   0.991       .  S
O530        H594   0.990       .  S
O531        C551   1.291       .  A
O532        C553   1.292       .  A
O533       Zr543   2.431       .  S
O533        C552   1.285       .  A
O534       Zr542   2.423       .  S
O534        C553   1.282       .  A
O535        C552   1.295       .  A
O536       Zr544   2.382       .  S
O536        C551   1.274       .  A
O537       Zr542   2.402       .  S
O537       Zr544   2.384       .  S
O538       Zr543   2.395       .  S
O538       Zr544   2.386       .  S
O538        H573   0.965       .  S
O539       Zr542   2.409       .  S
O539       Zr559   2.410       .  S
O539        H576   0.964       .  S
O540       Zr543   2.389       .  S
O540       Zr559   2.390       .  S
Zr541       O566   2.441       .  S
Zr541       O560   2.429       .  S
Zr541       O568   2.411       .  S
Zr541       O556   2.423       .  S
Zr541       O547   2.397       .  S
Zr541       O548   2.395       .  S
Zr541       O549   2.376       .  S
Zr541       O550   2.374       .  S
Zr542       O561   2.435       .  S
Zr542       O554   2.435       .  S
Zr542       O555   2.459       .  S
Zr542       O548   2.387       .  S
Zr542       O549   2.395       .  S
Zr543       O545   2.435       .  S
Zr543       O567   2.437       .  S
Zr543       O569   2.448       .  S
Zr543       O547   2.389       .  S
Zr543       O550   2.397       .  S
Zr544       O570   2.435       .  S
Zr544       O571   2.437       .  S
Zr544       O546   2.439       .  S
Zr544       O547   2.387       .  S
Zr544       O548   2.375       .  S
O545        H582   0.990       .  S
O546        H577   0.990       .  S
O546        H591   0.990       .  S
O548        H574   0.965       .  S
O549       Zr559   2.378       .  S
O550       Zr559   2.380       .  S
O550        H575   0.966       .  S
C551       C1243   1.476       .  S
C552       C1272   1.488       .  S
C553       C1224   1.478       .  S
O554        H590   0.990       .  S
O555        C557   1.289       .  A
O556        C557   1.283       .  A
C557       C1480   1.474       .  S
O558       Zr559   2.440       .  S
O558        H587   0.990       .  S
Zr559       O562   2.436       .  S
Zr559       O563   2.439       .  S
Zr559       O564   2.446       .  S
O560        C565   1.283       .  A
O561        H578   0.990       .  S
O561        H593   0.990       .  S
O562        H579   0.990       .  S
O563        H583   0.990       .  S
O563        H592   0.990       .  S
O564        C565   1.285       .  A
C565       C1259   1.477       .  S
O566        H585   0.990       .  S
O566        H589   0.991       .  S
O567        H581   0.990       .  S
O567        H588   0.990       .  S
O568        C572   1.280       .  A
O569        C572   1.286       .  A
O570        H580   0.990       .  S
O571        H584   0.990       .  S
C572       C1208   1.469       .  S
Zr595       O596   2.442       .  S
Zr595       O597   2.484       .  S
Zr595       O598   2.504       .  S
Zr595       O601   2.479       .  S
Zr595       O603   2.394       .  S
Zr595       O604   2.403       .  S
Zr595       O605   2.422       .  S
Zr595       O606   2.421       .  S
O596        H652   0.990       .  S
O596        H660   0.991       .  S
O597        C617   1.292       .  A
O598        C619   1.295       .  A
O599       Zr609   2.432       .  S
O599        C618   1.284       .  A
O600       Zr608   2.427       .  S
O600        C619   1.285       .  A
O601        C618   1.292       .  A
O602       Zr610   2.371       .  S
O602        C617   1.273       .  A
O603       Zr608   2.400       .  S
O603       Zr610   2.389       .  S
O604       Zr609   2.403       .  S
O604       Zr610   2.378       .  S
O604        H639   0.966       .  S
O605       Zr608   2.415       .  S
O605       Zr625   2.388       .  S
O605        H642   0.963       .  S
O606       Zr609   2.409       .  S
O606       Zr625   2.402       .  S
Zr607       O632   2.442       .  S
Zr607       O626   2.415   1_554  S
Zr607       O634   2.412   1_554  S
Zr607       O622   2.409       .  S
Zr607       O613   2.393       .  S
Zr607       O614   2.389       .  S
Zr607       O615   2.371       .  S
Zr607       O616   2.374       .  S
Zr608       O627   2.438       .  S
Zr608       O620   2.435       .  S
Zr608       O621   2.464       .  S
Zr608       O614   2.389       .  S
Zr608       O615   2.390       .  S
Zr609       O611   2.436   1_554  S
Zr609       O633   2.438       .  S
Zr609       O635   2.474   1_554  S
Zr609       O613   2.387       .  S
Zr609       O616   2.392       .  S
Zr610       O636   2.435       .  S
Zr610       O637   2.437       .  S
Zr610       O612   2.439       .  S
Zr610       O613   2.383       .  S
Zr610       O614   2.368       .  S
O611        H648   0.990       .  S
O612        H643   0.990       .  S
O612        H657   0.990       .  S
O614        H640   0.964       .  S
O615       Zr625   2.379       .  S
O616       Zr625   2.377       .  S
O616        H641   0.965   1_554  S
C617       C1240   1.474       .  S
C618       C1496   1.485       .  S
C619       C1675   1.495       .  S
O620        H656   0.990       .  S
O621        C623   1.288       .  A
O622        C623   1.281       .  A
C623       C1179   1.471       .  S
O624       Zr625   2.438       .  S
O624        H653   0.990       .  S
Zr625       O628   2.436       .  S
Zr625       O629   2.442   1_554  S
Zr625       O630   2.429       .  S
O626        C631   1.282       .  A
O627        H644   0.990       .  S
O627        H659   0.990       .  S
O628        H645   0.990       .  S
O629        H649   0.990       .  S
O629        H658   0.990       .  S
O630        C631   1.281   1_554  A
C631       C1755   1.469       .  S
O632        H651   0.991   1_554  S
O632        H655   0.990       .  S
O633        H647   0.990   1_554  S
O633        H654   0.990       .  S
O634        C638   1.281       .  A
O635        C638   1.291       .  A
O636        H646   0.990       .  S
O637        H650   0.990       .  S
C638       C1192   1.484       .  S
Zr661       O662   2.440       .  S
Zr661       O663   2.497       .  S
Zr661       O664   2.475       .  S
Zr661       O667   2.474       .  S
Zr661       O669   2.388       .  S
Zr661       O670   2.394       .  S
Zr661       O671   2.429       .  S
Zr661       O672   2.423       .  S
O662        H718   0.990       .  S
O662        H726   0.991       .  S
O663        C683   1.295       .  A
O664        C685   1.291       .  A
O665       Zr675   2.423       .  S
O665        C684   1.283       .  A
O666       Zr674   2.440       .  S
O666        C685   1.286       .  A
O667        C684   1.291       .  A
O668       Zr676   2.390       .  S
O668        C683   1.275       .  A
O669       Zr674   2.402       .  S
O669       Zr676   2.386       .  S
O670       Zr675   2.404       .  S
O670       Zr676   2.376       .  S
O670        H705   0.966       .  S
O671       Zr674   2.412       .  S
O671       Zr691   2.392       .  S
O671        H708   0.963       .  S
O672       Zr675   2.401       .  S
O672       Zr691   2.410       .  S
Zr673       O698   2.441       .  S
Zr673       O692   2.418       .  S
Zr673       O700   2.393       .  S
Zr673       O688   2.404       .  S
Zr673       O679   2.395       .  S
Zr673       O680   2.396       .  S
Zr673       O681   2.368       .  S
Zr673       O682   2.374       .  S
Zr674       O693   2.437       .  S
Zr674       O686   2.436       .  S
Zr674       O687   2.455       .  S
Zr674       O680   2.400       .  S
Zr674       O681   2.396       .  S
Zr675       O677   2.435       .  S
Zr675       O699   2.437       .  S
Zr675       O701   2.459       .  S
Zr675       O679   2.385       .  S
Zr675       O682   2.393       .  S
Zr676       O702   2.437       .  S
Zr676       O703   2.435       .  S
Zr676       O678   2.437       .  S
Zr676       O679   2.386       .  S
Zr676       O680   2.384       .  S
O677        H714   0.990       .  S
O678        H709   0.990       .  S
O678        H723   0.989       .  S
O680        H706   0.965       .  S
O681       Zr691   2.377       .  S
O682       Zr691   2.371       .  S
O682        H707   0.966       .  S
C683       C1160   1.486       .  S
C684       C1147   1.481       .  S
C685       C1531   1.484       .  S
O686        H722   0.990       .  S
O687        C689   1.286       .  A
O688        C689   1.279       .  A
C689       C1659   1.468       .  S
O690       Zr691   2.434       .  S
O690        H719   0.990       .  S
Zr691       O694   2.434       .  S
Zr691       O695   2.437       .  S
Zr691       O696   2.448       .  S
O692        C697   1.281       .  A
O693        H710   0.990       .  S
O693        H725   0.990       .  S
O694        H711   0.989       .  S
O695        H715   0.990       .  S
O695        H724   0.990       .  S
O696        C697   1.284       .  A
C697       C1611   1.479       .  S
O698        H717   0.990       .  S
O698        H721   0.991       .  S
O699        H713   0.990       .  S
O699        H720   0.990       .  S
O700        C704   1.278       .  A
O701        C704   1.287       .  A
O702        H712   0.990       .  S
O703        H716   0.990       .  S
C704       C1304   1.469       .  S
Zr727       O728   2.441       .  S
Zr727       O729   2.505       .  S
Zr727       O730   2.478       .  S
Zr727       O733   2.484       .  S
Zr727       O735   2.386       .  S
Zr727       O736   2.390       .  S
Zr727       O737   2.434       .  S
Zr727       O738   2.411       .  S
O728        H784   0.991       .  S
O728        H792   0.990       .  S
O729        C749   1.296       .  A
O730        C751   1.290       .  A
O731       Zr741   2.424       .  S
O731        C750   1.283       .  A
O732       Zr740   2.428       .  S
O732        C751   1.283       .  A
O733        C750   1.295       .  A
O734       Zr742   2.386       .  S
O734        C749   1.273       .  A
O735       Zr740   2.404       .  S
O735       Zr742   2.387       .  S
O736       Zr741   2.396       .  S
O736       Zr742   2.380       .  S
O736        H771   0.966       .  S
O737       Zr740   2.406       .  S
O737       Zr757   2.414       .  S
O737        H774   0.965       .  S
O738       Zr741   2.392       .  S
O738       Zr757   2.400       .  S
Zr739       O764   2.439       .  S
Zr739       O758   2.422       .  S
Zr739       O766   2.413       .  S
Zr739       O754   2.422       .  S
Zr739       O745   2.396       .  S
Zr739       O746   2.394       .  S
Zr739       O747   2.373       .  S
Zr739       O748   2.376       .  S
Zr740       O759   2.435       .  S
Zr740       O752   2.434       .  S
Zr740       O753   2.453       .  S
Zr740       O746   2.393       .  S
Zr740       O747   2.392       .  S
Zr741       O743   2.435       .  S
Zr741       O765   2.437       .  S
Zr741       O767   2.442       .  S
Zr741       O745   2.386       .  S
Zr741       O748   2.394       .  S
Zr742       O768   2.438       .  S
Zr742       O769   2.435       .  S
Zr742       O744   2.437       .  S
Zr742       O745   2.383       .  S
Zr742       O746   2.378       .  S
O743        H780   0.990       .  S
O744        H775   0.990       .  S
O744        H789   0.990       .  S
O746        H772   0.965       .  S
O747       Zr757   2.375       .  S
O748       Zr757   2.370       .  S
O748        H773   0.966       .  S
C749       C1163   1.486       .  S
C750       C1227   1.482       .  S
C751       C1320   1.478       .  S
O752        H788   0.990       .  S
O753        C755   1.288       .  A
O754        C755   1.283       .  A
C755       C1128   1.471       .  S
O756       Zr757   2.435       .  S
O756        H785   0.991       .  S
Zr757       O760   2.436       .  S
Zr757       O761   2.439       .  S
Zr757       O762   2.460       .  S
O758        C763   1.282       .  A
O759        H776   0.990       .  S
O759        H791   0.990       .  S
O760        H777   0.990       .  S
O761        H781   0.990       .  S
O761        H790   0.990       .  S
O762        C763   1.288       .  A
C763       C1195   1.481       .  S
O764        H783   0.990       .  S
O764        H787   0.990       .  S
O765        H779   0.990       .  S
O765        H786   0.990       .  S
O766        C770   1.282       .  A
O767        C770   1.285       .  A
O768        H778   0.990       .  S
O769        H782   0.990       .  S
C770       C1739   1.465       .  S
Zr793       O794   2.441       .  S
Zr793       O795   2.488       .  S
Zr793       O796   2.481       .  S
Zr793       O799   2.481       .  S
Zr793       O801   2.393       .  S
Zr793       O802   2.395       .  S
Zr793       O803   2.427       .  S
Zr793       O804   2.410       .  S
O794        H850   0.990       .  S
O794        H858   0.991       .  S
O795        C815   1.292       .  A
O796        C817   1.291       .  A
O797       Zr807   2.423       .  S
O797        C816   1.283       .  A
O798       Zr806   2.429       .  S
O798        C817   1.284       .  A
O799        C816   1.292       .  A
O800       Zr808   2.381       .  S
O800        C815   1.273       .  A
O801       Zr806   2.405       .  S
O801       Zr808   2.387       .  S
O802       Zr807   2.397       .  S
O802       Zr808   2.386       .  S
O802        H837   0.966       .  S
O803       Zr806   2.413       .  S
O803       Zr823   2.399       .  S
O803        H840   0.964       .  S
O804       Zr807   2.396       .  S
O804       Zr823   2.397       .  S
Zr805       O830   2.442       .  S
Zr805       O824   2.415       .  S
Zr805       O832   2.398       .  S
Zr805       O820   2.414       .  S
Zr805       O811   2.391       .  S
Zr805       O812   2.394       .  S
Zr805       O813   2.370       .  S
Zr805       O814   2.375       .  S
Zr806       O825   2.436       .  S
Zr806       O818   2.435       .  S
Zr806       O819   2.468       .  S
Zr806       O812   2.394       .  S
Zr806       O813   2.395       .  S
Zr807       O809   2.436       .  S
Zr807       O831   2.439       .  S
Zr807       O833   2.459       .  S
Zr807       O811   2.381       .  S
Zr807       O814   2.392       .  S
Zr808       O834   2.436       .  S
Zr808       O835   2.436       .  S
Zr808       O810   2.436       .  S
Zr808       O811   2.378       .  S
Zr808       O812   2.383       .  S
O809        H846   0.990       .  S
O810        H841   0.991       .  S
O810        H855   0.990       .  S
O812        H838   0.966       .  S
O813       Zr823   2.375       .  S
O814       Zr823   2.378       .  S
O814        H839   0.966       .  S
C815       C1115   1.477       .  S
C816       C1387   1.482       .  S
C817       C1816   1.478       .  S
O818        H854   0.990       .  S
O819        C821   1.290       .  A
O820        C821   1.279       .  A
C821       C1096   1.477       .  S
O822       Zr823   2.439       .  S
O822        H851   0.990       .  S
Zr823       O826   2.437       .  S
Zr823       O827   2.438       .  S
Zr823       O828   2.438       .  S
O824        C829   1.281       .  A
O825        H842   0.990       .  S
O825        H857   0.990       .  S
O826        H843   0.990       .  S
O827        H847   0.990       .  S
O827        H856   0.990       .  S
O828        C829   1.283       .  A
C829       C1435   1.471       .  S
O830        H849   0.990       .  S
O830        H853   0.991       .  S
O831        H845   0.989       .  S
O831        H852   0.990       .  S
O832        C836   1.280       .  A
O833        C836   1.287       .  A
O834        H844   0.990       .  S
O835        H848   0.990       .  S
C836       C1211   1.472       .  S
Zr859       O860   2.442       .  S
Zr859       O861   2.484       .  S
Zr859       O862   2.487       .  S
Zr859       O865   2.459       .  S
Zr859       O867   2.386       .  S
Zr859       O868   2.395       .  S
Zr859       O869   2.419       .  S
Zr859       O870   2.425       .  S
O860        H916   0.990       .  S
O860        H924   0.991       .  S
O861        C881   1.291       .  A
O862        C883   1.293       .  A
O863       Zr873   2.427       .  S
O863        C882   1.284       .  A
O864       Zr872   2.422       .  S
O864        C883   1.283       .  A
O865        C882   1.288       .  A
O866       Zr874   2.376       .  S
O866        C881   1.273       .  A
O867       Zr872   2.402       .  S
O867       Zr874   2.390       .  S
O868       Zr873   2.400       .  S
O868       Zr874   2.373       .  S
O868        H903   0.966       .  S
O869       Zr872   2.415       .  S
O869       Zr889   2.390       .  S
O869        H906   0.964       .  S
O870       Zr873   2.406       .  S
O870       Zr889   2.405       .  S
Zr871       O896   2.442       .  S
Zr871       O890   2.429   1_554  S
Zr871       O898   2.400   1_554  S
Zr871       O886   2.419       .  S
Zr871       O877   2.395       .  S
Zr871       O878   2.394       .  S
Zr871       O879   2.368       .  S
Zr871       O880   2.376       .  S
Zr872       O891   2.436       .  S
Zr872       O884   2.434       .  S
Zr872       O885   2.458       .  S
Zr872       O878   2.392       .  S
Zr872       O879   2.401       .  S
Zr873       O875   2.436   1_554  S
Zr873       O897   2.439       .  S
Zr873       O899   2.465   1_554  S
Zr873       O877   2.379       .  S
Zr873       O880   2.395       .  S
Zr874       O900   2.435       .  S
Zr874       O901   2.435       .  S
Zr874       O876   2.439       .  S
Zr874       O877   2.377       .  S
Zr874       O878   2.371       .  S
O875        H912   0.990       .  S
O876        H907   0.990       .  S
O876        H921   0.990       .  S
O878        H904   0.963       .  S
O879       Zr889   2.383       .  S
O880       Zr889   2.371       .  S
O880        H905   0.966   1_554  S
C881       C1112   1.476       .  S
C882       C1080   1.472       .  S
C883       C1144   1.482       .  S
O884        H920   0.990       .  S
O885        C887   1.288       .  A
O886        C887   1.281       .  A
C887       C1176   1.471       .  S
O888       Zr889   2.435       .  S
O888        H917   0.990       .  S
Zr889       O892   2.435       .  S
Zr889       O893   2.439   1_554  S
Zr889       O894   2.436       .  S
O890        C895   1.283       .  A
O891        H908   0.990       .  S
O891        H923   0.990       .  S
O892        H909   0.990       .  S
O893        H913   0.990       .  S
O893        H922   0.990       .  S
O894        C895   1.282   1_554  A
C895       C1131   1.477       .  S
O896        H915   0.991       .  S
O896        H919   0.990   1_554  S
O897        H911   0.990   1_554  S
O897        H918   0.990       .  S
O898        C902   1.279       .  A
O899        C902   1.289       .  A
O900        H910   0.990       .  S
O901        H914   0.990       .  S
C902       C1803   1.471       .  S
Zr925       O926   2.440       .  S
Zr925       O927   2.507       .  S
Zr925       O928   2.484       .  S
Zr925       O931   2.476       .  S
Zr925       O933   2.390       .  S
Zr925       O934   2.398       .  S
Zr925       O935   2.435       .  S
Zr925       O936   2.405       .  S
O926        H982   0.990       .  S
O926        H990   0.991       .  S
O927        C947   1.295       .  A
O928        C949   1.292       .  A
O929       Zr939   2.425       .  S
O929        C948   1.283       .  A
O930       Zr938   2.421       .  S
O930        C949   1.282       .  A
O931        C948   1.292       .  A
O932       Zr940   2.387       .  S
O932        C947   1.274       .  A
O933       Zr938   2.411       .  S
O933       Zr940   2.384       .  S
O934       Zr939   2.403       .  S
O934       Zr940   2.384       .  S
O934        H969   0.965       .  S
O935       Zr938   2.413       .  S
O935       Zr955   2.412       .  S
O935        H972   0.964       .  S
O936       Zr939   2.389       .  S
O936       Zr955   2.386       .  S
Zr937       O962   2.442       .  S
Zr937       O956   2.410       .  S
Zr937       O964   2.403       .  S
Zr937       O952   2.406       .  S
Zr937       O943   2.395       .  S
Zr937       O944   2.390       .  S
Zr937       O945   2.371       .  S
Zr937       O946   2.370       .  S
Zr938       O957   2.436       .  S
Zr938       O950   2.434       .  S
Zr938       O951   2.473       .  S
Zr938       O944   2.388       .  S
Zr938       O945   2.387       .  S
Zr939       O941   2.436       .  S
Zr939       O963   2.437       .  S
Zr939       O965   2.451       .  S
Zr939       O943   2.389       .  S
Zr939       O946   2.387       .  S
Zr940       O966   2.438       .  S
Zr940       O967   2.434   1_455  S
Zr940       O942   2.437       .  S
Zr940       O943   2.387       .  S
Zr940       O944   2.381       .  S
O941        H978   0.990       .  S
O942        H973   0.990   1_455  S
O942        H987   0.990       .  S
O944        H970   0.966       .  S
O945       Zr955   2.380       .  S
O946       Zr955   2.378       .  S
O946        H971   0.966       .  S
C947       C1064   1.492       .  S
C948       C1291   1.477       .  S
C949       C1275   1.477       .  S
O950        H986   0.990       .  S
O951        C953   1.290       .  A
O952        C953   1.280       .  A
C953       C1560   1.479       .  S
O954       Zr955   2.438       .  S
O954        H983   0.990       .  S
Zr955       O958   2.436       .  S
Zr955       O959   2.441       .  S
Zr955       O960   2.436       .  S
O956        C961   1.281       .  A
O957        H974   0.990       .  S
O957        H989   0.990       .  S
O958        H975   0.990       .  S
O959        H979   0.990       .  S
O959        H988   0.990       .  S
O960        C961   1.282       .  A
C961       C1339   1.469       .  S
O962        H981   0.991       .  S
O962        H985   0.990       .  S
O963        H977   0.990       .  S
O963        H984   0.990       .  S
O964        C968   1.279       .  A
O965        C968   1.286       .  A
O966        H976   0.990       .  S
O967        H980   0.990       .  S
C968       C1371   1.468       .  S
Zr991       O992   2.441       .  S
Zr991       O993   2.501       .  S
Zr991       O994   2.484       .  S
Zr991       O997   2.472       .  S
Zr991       O999   2.385       .  S
Zr991      O1000   2.391       .  S
Zr991      O1001   2.430       .  S
Zr991      O1002   2.428       .  S
O992       H1048   0.990       .  S
O992       H1056   0.990       .  S
O993       C1013   1.294       .  A
O994       C1015   1.293       .  A
O995      Zr1005   2.429       .  S
O995       C1014   1.283       .  A
O996      Zr1004   2.419       .  S
O996       C1015   1.282       .  A
O997       C1014   1.291       .  A
O998      Zr1006   2.388       .  S
O998       C1013   1.274       .  A
O999      Zr1004   2.403       .  S
O999      Zr1006   2.386       .  S
O1000     Zr1005   2.407       .  S
O1000     Zr1006   2.376       .  S
O1000      H1035   0.966       .  S
O1001     Zr1004   2.407       .  S
O1001     Zr1021   2.396       .  S
O1001      H1038   0.963       .  S
O1002     Zr1005   2.399       .  S
O1002     Zr1021   2.409       .  S
Zr1003     O1028   2.440       .  S
Zr1003     O1022   2.428       .  S
Zr1003     O1030   2.414       .  S
Zr1003     O1018   2.425       .  S
Zr1003     O1009   2.394       .  S
Zr1003     O1010   2.395       .  S
Zr1003     O1011   2.367       .  S
Zr1003     O1012   2.381       .  S
Zr1004     O1023   2.439       .  S
Zr1004     O1016   2.436       .  S
Zr1004     O1017   2.441       .  S
Zr1004     O1010   2.396       .  S
Zr1004     O1011   2.391       .  S
Zr1005     O1007   2.436       .  S
Zr1005     O1029   2.439       .  S
Zr1005     O1031   2.460       .  S
Zr1005     O1009   2.386       .  S
Zr1005     O1012   2.397       .  S
Zr1006     O1032   2.439       .  S
Zr1006     O1033   2.435   1_655  S
Zr1006     O1008   2.438       .  S
Zr1006     O1009   2.380       .  S
Zr1006     O1010   2.383       .  S
O1007      H1044   0.990       .  S
O1008      H1039   0.990   1_655  S
O1008      H1053   0.990       .  S
O1010      H1036   0.966       .  S
O1011     Zr1021   2.377       .  S
O1012     Zr1021   2.371       .  S
O1012      H1037   0.966       .  S
C1013      C1067   1.491       .  S
C1014      C1576   1.480       .  S
C1015      C1083   1.478       .  S
O1016      H1052   0.990       .  S
O1017      C1019   1.284       .  A
O1018      C1019   1.283       .  A
C1019      C1416   1.468       .  S
O1020     Zr1021   2.437       .  S
O1020      H1049   0.990       .  S
Zr1021     O1024   2.435       .  S
Zr1021     O1025   2.440       .  S
Zr1021     O1026   2.453       .  S
O1022      C1027   1.283       .  A
O1023      H1040   0.990       .  S
O1023      H1055   0.990       .  S
O1024      H1041   0.989       .  S
O1025      H1045   0.990       .  S
O1025      H1054   0.990       .  S
O1026      C1027   1.286       .  A
C1027      C1099   1.484       .  S
O1028      H1047   0.990       .  S
O1028      H1051   0.990       .  S
O1029      H1043   0.990       .  S
O1029      H1050   0.990       .  S
O1030      C1034   1.283       .  A
O1031      C1034   1.288       .  A
O1032      H1042   0.990       .  S
O1033      H1046   0.990       .  S
C1034      C1256   1.476       .  S
C1057      C1062   1.380       .  A
C1057      C1058   1.407   1_554  A
C1057      O1063   1.332       .  A
C1058      C1059   1.411   1_455  A
C1058      H1069   1.082       .  S
C1059      C1068   1.358       .  A
C1059      C1060   1.380       .  A
C1060      C1061   1.406   1_556  A
C1060      O1066   1.331       .  A
C1061      C1062   1.411   1_655  A
C1061      H1070   1.082       .  S
C1062      C1065   1.358       .  A
O1063      C1064   1.335       .  A
C1064      C1065   1.398       .  A
C1065      H1071   1.083   1_455  S
O1066      C1067   1.334       .  A
C1067      C1068   1.398       .  A
C1068      H1072   1.083   1_655  S
C1073      C1078   1.380       .  A
C1073      C1074   1.410       .  A
C1073      O1079   1.324       .  A
C1074      C1075   1.409       .  A
C1074      H1085   1.082       .  S
C1075      C1084   1.371   1_554  A
C1075      C1076   1.380       .  A
C1076      C1077   1.403       .  A
C1076      O1082   1.317   1_554  A
C1077      C1078   1.401       .  A
C1077      H1086   1.082       .  S
C1078      C1081   1.362       .  A
O1079      C1080   1.333       .  A
C1080      C1081   1.389       .  A
C1081      H1087   1.083       .  S
O1082      C1083   1.332       .  A
C1083      C1084   1.395       .  A
C1084      H1088   1.082       .  S
C1089      C1094   1.380       .  A
C1089      C1090   1.401       .  A
C1089      O1095   1.315       .  A
C1090      C1091   1.400       .  A
C1090      H1101   1.083       .  S
C1091      C1100   1.360       .  A
C1091      C1092   1.379       .  A
C1092      C1093   1.412       .  A
C1092      O1098   1.326       .  A
C1093      C1094   1.411       .  A
C1093      H1102   1.082       .  S
C1094      C1097   1.374       .  A
O1095      C1096   1.331       .  A
C1096      C1097   1.396       .  A
C1097      H1103   1.082       .  S
O1098      C1099   1.336       .  A
C1099      C1100   1.392       .  A
C1100      H1104   1.083       .  S
C1105      C1110   1.380       .  A
C1105      C1106   1.404       .  A
C1105      O1111   1.327       .  A
C1106      C1107   1.408       .  A
C1106      H1117   1.082       .  S
C1107      C1116   1.358       .  A
C1107      C1108   1.380       .  A
C1108      C1109   1.401       .  A
C1108      O1114   1.324       .  A
C1109      C1110   1.404       .  A
C1109      H1118   1.082       .  S
C1110      C1113   1.353       .  A
O1111      C1112   1.332       .  A
C1112      C1113   1.394       .  A
C1113      H1119   1.083       .  S
O1114      C1115   1.331       .  A
C1115      C1116   1.396       .  A
C1116      H1120   1.083       .  S
C1121      C1126   1.380       .  A
C1121      C1122   1.399       .  A
C1121      O1127   1.315       .  A
C1122      C1123   1.398       .  A
C1122      H1133   1.082       .  S
C1123      C1132   1.356       .  A
C1123      C1124   1.379       .  A
C1124      C1125   1.410       .  A
C1124      O1130   1.325       .  A
C1125      C1126   1.410       .  A
C1125      H1134   1.082       .  S
C1126      C1129   1.370       .  A
O1127      C1128   1.329       .  A
C1128      C1129   1.396       .  A
C1129      H1135   1.082       .  S
O1130      C1131   1.335       .  A
C1131      C1132   1.389       .  A
C1132      H1136   1.083       .  S
C1137      C1142   1.379       .  A
C1137      C1138   1.403       .  A
C1137      O1143   1.316       .  A
C1138      C1139   1.401       .  A
C1138      H1149   1.083       .  S
C1139      C1148   1.362       .  A
C1139      C1140   1.379       .  A
C1140      C1141   1.414       .  A
C1140      O1146   1.327       .  A
C1141      C1142   1.412       .  A
C1141      H1150   1.082       .  S
C1142      C1145   1.376       .  A
O1143      C1144   1.331       .  A
C1144      C1145   1.397       .  A
C1145      H1151   1.082       .  S
O1146      C1147   1.336       .  A
C1147      C1148   1.391       .  A
C1148      H1152   1.083       .  S
C1153      C1158   1.378       .  A
C1153      C1154   1.408       .  A
C1153      O1159   1.316       .  A
C1154      C1155   1.404       .  A
C1154      H1165   1.082       .  S
C1155      C1164   1.374       .  A
C1155      C1156   1.378       .  A
C1156      C1157   1.413       .  A
C1156      O1162   1.319       .  A
C1157      C1158   1.408       .  A
C1157      H1166   1.082       .  S
C1158      C1161   1.378       .  A
O1159      C1160   1.335       .  A
C1160      C1161   1.396       .  A
C1161      H1167   1.082       .  S
O1162      C1163   1.337       .  A
C1163      C1164   1.393       .  A
C1164      H1168   1.082       .  S
C1169      C1174   1.380       .  A
C1169      C1170   1.396       .  A
C1169      O1175   1.310       .  A
C1170      C1171   1.394       .  A
C1170      H1181   1.083       .  S
C1171      C1180   1.352       .  A
C1171      C1172   1.380       .  A
C1172      C1173   1.412       .  A
C1172      O1178   1.326       .  A
C1173      C1174   1.411       .  A
C1173      H1182   1.082       .  S
C1174      C1177   1.374       .  A
O1175      C1176   1.328       .  A
C1176      C1177   1.396       .  A
C1177      H1183   1.082       .  S
O1178      C1179   1.335       .  A
C1179      C1180   1.388       .  A
C1180      H1184   1.083       .  S
C1185      C1190   1.379       .  A
C1185      C1186   1.412       .  A
C1185      O1191   1.330       .  A
C1186      C1187   1.413       .  A
C1186      H1197   1.082       .  S
C1187      C1196   1.372       .  A
C1187      C1188   1.380       .  A
C1188      C1189   1.400       .  A
C1188      O1194   1.318       .  A
C1189      C1190   1.401       .  A
C1189      H1198   1.083       .  S
C1190      C1193   1.355       .  A
O1191      C1192   1.336       .  A
C1192      C1193   1.392       .  A
C1193      H1199   1.083       .  S
O1194      C1195   1.331       .  A
C1195      C1196   1.396       .  A
C1196      H1200   1.082       .  S
C1201      C1206   1.380       .  A
C1201      C1202   1.393       .  A
C1201      O1207   1.308       .  A
C1202      C1203   1.392   1_455  A
C1202      H1213   1.083       .  S
C1203      C1212   1.348       .  A
C1203      C1204   1.380       .  A
C1204      C1205   1.412       .  A
C1204      O1210   1.327       .  A
C1205      C1206   1.412   1_655  A
C1205      H1214   1.082       .  S
C1206      C1209   1.374       .  A
O1207      C1208   1.326       .  A
C1208      C1209   1.397       .  A
C1209      H1215   1.082       .  S
O1210      C1211   1.335       .  A
C1211      C1212   1.388       .  A
C1212      H1216   1.083       .  S
C1217      C1222   1.379       .  A
C1217      C1218   1.408       .  A
C1217      O1223   1.321       .  A
C1218      C1219   1.406       .  A
C1218      H1229   1.082       .  S
C1219      C1228   1.368       .  A
C1219      C1220   1.379       .  A
C1220      C1221   1.410       .  A
C1220      O1226   1.322       .  A
C1221      C1222   1.408       .  A
C1221      H1230   1.082       .  S
C1222      C1225   1.371       .  A
O1223      C1224   1.333       .  A
C1224      C1225   1.393       .  A
C1225      H1231   1.082       .  S
O1226      C1227   1.335       .  A
C1227      C1228   1.393       .  A
C1228      H1232   1.082       .  S
C1233      C1238   1.381       .  A
C1233      C1234   1.402       .  A
C1233      O1239   1.326       .  A
C1234      C1235   1.406       .  A
C1234      H1245   1.082       .  S
C1235      C1244   1.355       .  A
C1235      C1236   1.381       .  A
C1236      C1237   1.401       .  A
C1236      O1242   1.325       .  A
C1237      C1238   1.405       .  A
C1237      H1246   1.082       .  S
C1238      C1241   1.352       .  A
O1239      C1240   1.331       .  A
C1240      C1241   1.394       .  A
C1241      H1247   1.083       .  S
O1242      C1243   1.331       .  A
C1243      C1244   1.395       .  A
C1244      H1248   1.083       .  S
C1249      C1254   1.380   1_455  A
C1249      C1250   1.411       .  A
C1249      O1255   1.327   1_455  A
C1250      C1251   1.411       .  A
C1250      H1261   1.082       .  S
C1251      C1260   1.370       .  A
C1251      C1252   1.380       .  A
C1252      C1253   1.398       .  A
C1252      O1258   1.317       .  A
C1253      C1254   1.398   1_455  A
C1253      H1262   1.082       .  S
C1254      C1257   1.353       .  A
O1255      C1256   1.335       .  A
C1256      C1257   1.389       .  A
C1257      H1263   1.083       .  S
O1258      C1259   1.329       .  A
C1259      C1260   1.396       .  A
C1260      H1264   1.082       .  S
C1265      C1270   1.379       .  A
C1265      C1266   1.410       .  A
C1265      O1271   1.328       .  A
C1266      C1267   1.411       .  A
C1266      H1277   1.082       .  S
C1267      C1276   1.369       .  A
C1267      C1268   1.380       .  A
C1268      C1269   1.405       .  A
C1268      O1274   1.323       .  A
C1269      C1270   1.405       .  A
C1269      H1278   1.082       .  S
C1270      C1273   1.361       .  A
O1271      C1272   1.335       .  A
C1272      C1273   1.395       .  A
C1273      H1279   1.083       .  S
O1274      C1275   1.331       .  A
C1275      C1276   1.395       .  A
C1276      H1280   1.082       .  S
C1281      C1286   1.380       .  A
C1281      C1282   1.410       .  A
C1281      O1287   1.323       .  A
C1282      C1283   1.409       .  A
C1282      H1293   1.082       .  S
C1283      C1292   1.372       .  A
C1283      C1284   1.380       .  A
C1284      C1285   1.401       .  A
C1284      O1290   1.315       .  A
C1285      C1286   1.399       .  A
C1285      H1294   1.082       .  S
C1286      C1289   1.361   1_554  A
O1287      C1288   1.334   1_554  A
C1288      C1289   1.387       .  A
C1289      H1295   1.082       .  S
O1290      C1291   1.330       .  A
C1291      C1292   1.396       .  A
C1292      H1296   1.082       .  S
C1297      C1302   1.381       .  A
C1297      C1298   1.407       .  A
C1297      O1303   1.324       .  A
C1298      C1299   1.407       .  A
C1298      H1309   1.082       .  S
C1299      C1308   1.366       .  A
C1299      C1300   1.381       .  A
C1300      C1301   1.397       .  A
C1300      O1306   1.314       .  A
C1301      C1302   1.397       .  A
C1301      H1310   1.083       .  S
C1302      C1305   1.351       .  A
O1303      C1304   1.333       .  A
C1304      C1305   1.390       .  A
C1305      H1311   1.083       .  S
O1306      C1307   1.328       .  A
C1307      C1308   1.393       .  A
C1308      H1312   1.082       .  S
C1313      C1318   1.379       .  A
C1313      C1314   1.414       .  A
C1313      O1319   1.326       .  A
C1314      C1315   1.412       .  A
C1314      H1325   1.082       .  S
C1315      C1324   1.377       .  A
C1315      C1316   1.379       .  A
C1316      C1317   1.404       .  A
C1316      O1322   1.316       .  A
C1317      C1318   1.401       .  A
C1317      H1326   1.082       .  S
C1318      C1321   1.364       .  A
O1319      C1320   1.336       .  A
C1320      C1321   1.390       .  A
C1321      H1327   1.083       .  S
O1322      C1323   1.332       .  A
C1323      C1324   1.397       .  A
C1324      H1328   1.082       .  S
C1329      C1334   1.381       .  A
C1329      C1330   1.394       .  A
C1329      O1335   1.311       .  A
C1330      C1331   1.393       .  A
C1330      H1341   1.083       .  S
C1331      C1340   1.349       .  A
C1331      C1332   1.380       .  A
C1332      C1333   1.409       .  A
C1332      O1338   1.325       .  A
C1333      C1334   1.409       .  A
C1333      H1342   1.082       .  S
C1334      C1337   1.369       .  A
O1335      C1336   1.326       .  A
C1336      C1337   1.395       .  A
C1337      H1343   1.082       .  S
O1338      C1339   1.334       .  A
C1339      C1340   1.387       .  A
C1340      H1344   1.083       .  S
C1345      C1350   1.380       .  A
C1345      C1346   1.404       .  A
C1345      O1351   1.329       .  A
C1346      C1347   1.409       .  A
C1346      H1357   1.082       .  S
C1347      C1356   1.356       .  A
C1347      C1348   1.381       .  A
C1348      C1349   1.401       .  A
C1348      O1354   1.327       .  A
C1349      C1350   1.405       .  A
C1349      H1358   1.082       .  S
C1350      C1353   1.352       .  A
O1351      C1352   1.333       .  A
C1352      C1353   1.396       .  A
C1353      H1359   1.083       .  S
O1354      C1355   1.331       .  A
C1355      C1356   1.398       .  A
C1356      H1360   1.083       .  S
C1361      C1366   1.380   1_455  A
C1361      C1362   1.395       .  A
C1361      O1367   1.309   1_455  A
C1362      C1363   1.394       .  A
C1362      H1373   1.083       .  S
C1363      C1372   1.352       .  A
C1363      C1364   1.380       .  A
C1364      C1365   1.409       .  A
C1364      O1370   1.323       .  A
C1365      C1366   1.408   1_455  A
C1365      H1374   1.082       .  S
C1366      C1369   1.371       .  A
O1367      C1368   1.327       .  A
C1368      C1369   1.394       .  A
C1369      H1375   1.082       .  S
O1370      C1371   1.333       .  A
C1371      C1372   1.389       .  A
C1372      H1376   1.083       .  S
C1377      C1382   1.380       .  A
C1377      C1378   1.412       .  A
C1377      O1383   1.324       .  A
C1378      C1379   1.410       .  A
C1378      H1389   1.082       .  S
C1379      C1388   1.374       .  A
C1379      C1380   1.379       .  A
C1380      C1381   1.403       .  A
C1380      O1386   1.316       .  A
C1381      C1382   1.401       .  A
C1381      H1390   1.082       .  S
C1382      C1385   1.364       .  A
O1383      C1384   1.334   1_545  A
C1384      C1385   1.389   1_565  A
C1385      H1391   1.082       .  S
O1386      C1387   1.331       .  A
C1387      C1388   1.397       .  A
C1388      H1392   1.082       .  S
C1393      C1398   1.379       .  A
C1393      C1394   1.411       .  A
C1393      O1399   1.326       .  A
C1394      C1395   1.410       .  A
C1394      H1405   1.082       .  S
C1395      C1404   1.373   1_455  A
C1395      C1396   1.380       .  A
C1396      C1397   1.399       .  A
C1396      O1402   1.313   1_455  A
C1397      C1398   1.397       .  A
C1397      H1406   1.083       .  S
C1398      C1401   1.356       .  A
O1399      C1400   1.335       .  A
C1400      C1401   1.391       .  A
C1401      H1407   1.083       .  S
O1402      C1403   1.330       .  A
C1403      C1404   1.395       .  A
C1404      H1408   1.082       .  S
C1409      C1414   1.380       .  A
C1409      C1410   1.412   1_655  A
C1409      O1415   1.324       .  A
C1410      C1411   1.409       .  A
C1410      H1421   1.082       .  S
C1411      C1420   1.373       .  A
C1411      C1412   1.380       .  A
C1412      C1413   1.393   1_455  A
C1412      O1418   1.306       .  A
C1413      C1414   1.391       .  A
C1413      H1422   1.083       .  S
C1414      C1417   1.350       .  A
O1415      C1416   1.335       .  A
C1416      C1417   1.386       .  A
C1417      H1423   1.083       .  S
O1418      C1419   1.326       .  A
C1419      C1420   1.395       .  A
C1420      H1424   1.082       .  S
C1425      C1430   1.380       .  A
C1425      C1426   1.396       .  A
C1425      O1431   1.309   1_655  A
C1426      C1427   1.393       .  A
C1426      H1437   1.083       .  S
C1427      C1436   1.353       .  A
C1427      C1428   1.379       .  A
C1428      C1429   1.411       .  A
C1428      O1434   1.324       .  A
C1429      C1430   1.410       .  A
C1429      H1438   1.082       .  S
C1430      C1433   1.375   1_655  A
O1431      C1432   1.329       .  A
C1432      C1433   1.396       .  A
C1433      H1439   1.082       .  S
O1434      C1435   1.334       .  A
C1435      C1436   1.388       .  A
C1436      H1440   1.083       .  S
C1441      C1446   1.380       .  A
C1441      C1442   1.406       .  A
C1441      O1447   1.323       .  A
C1442      C1443   1.406       .  A
C1442      H1453   1.082       .  S
C1443      C1452   1.363       .  A
C1443      C1444   1.380       .  A
C1444      C1445   1.408       .  A
C1444      O1450   1.325       .  A
C1445      C1446   1.408       .  A
C1445      H1454   1.082       .  S
C1446      C1449   1.366       .  A
O1447      C1448   1.332       .  A
C1448      C1449   1.392       .  A
C1449      H1455   1.082       .  S
O1450      C1451   1.334       .  A
C1451      C1452   1.395       .  A
C1452      H1456   1.083       .  S
C1457      C1462   1.380   1_655  A
C1457      C1458   1.406   1_554  A
C1457      O1463   1.329       .  A
C1458      C1459   1.409   1_655  A
C1458      H1469   1.082       .  S
C1459      C1468   1.358   1_565  A
C1459      C1460   1.380       .  A
C1460      C1461   1.408   1_556  A
C1460      O1466   1.331   1_565  A
C1461      C1462   1.412       .  A
C1461      H1470   1.082       .  S
C1462      C1465   1.362       .  A
O1463      C1464   1.333       .  A
C1464      C1465   1.399   1_655  A
C1465      H1471   1.083       .  S
O1466      C1467   1.335       .  A
C1467      C1468   1.397       .  A
C1468      H1472   1.083   1_455  S
C1473      C1478   1.380       .  A
C1473      C1474   1.401       .  A
C1473      O1479   1.317       .  A
C1474      C1475   1.401       .  A
C1474      H1485   1.082       .  S
C1475      C1484   1.358       .  A
C1475      C1476   1.379       .  A
C1476      C1477   1.411       .  A
C1476      O1482   1.327       .  A
C1477      C1478   1.411       .  A
C1477      H1486   1.082       .  S
C1478      C1481   1.370       .  A
O1479      C1480   1.330       .  A
C1480      C1481   1.395       .  A
C1481      H1487   1.082       .  S
O1482      C1483   1.336       .  A
C1483      C1484   1.392       .  A
C1484      H1488   1.083       .  S
C1489      C1494   1.379       .  A
C1489      C1490   1.416       .  A
C1489      O1495   1.330       .  A
C1490      C1491   1.415   1_554  A
C1490      H1501   1.082       .  S
C1491      C1500   1.379       .  A
C1491      C1492   1.379       .  A
C1492      C1493   1.404   1_556  A
C1492      O1498   1.318       .  A
C1493      C1494   1.402       .  A
C1493      H1502   1.082       .  S
C1494      C1497   1.363       .  A
O1495      C1496   1.338       .  A
C1496      C1497   1.390       .  A
C1497      H1503   1.083       .  S
O1498      C1499   1.332       .  A
C1499      C1500   1.400       .  A
C1500      H1504   1.082       .  S
C1505      C1510   1.380       .  A
C1505      C1506   1.393       .  A
C1505      O1511   1.310       .  A
C1506      C1507   1.392   1_455  A
C1506      H1517   1.083       .  S
C1507      C1516   1.346       .  A
C1507      C1508   1.379       .  A
C1508      C1509   1.414   1_655  A
C1508      O1514   1.330       .  A
C1509      C1510   1.414       .  A
C1509      H1518   1.082       .  S
C1510      C1513   1.375       .  A
O1511      C1512   1.327       .  A
C1512      C1513   1.398       .  A
C1513      H1519   1.082       .  S
O1514      C1515   1.337       .  A
C1515      C1516   1.389       .  A
C1516      H1520   1.083       .  S
C1521      C1526   1.380       .  A
C1521      C1522   1.407       .  A
C1521      O1527   1.324       .  A
C1522      C1523   1.408       .  A
C1522      H1533   1.082       .  S
C1523      C1532   1.366       .  A
C1523      C1524   1.380       .  A
C1524      C1525   1.408       .  A
C1524      O1530   1.324       .  A
C1525      C1526   1.408       .  A
C1525      H1534   1.082       .  S
C1526      C1529   1.367       .  A
O1527      C1528   1.333       .  A
C1528      C1529   1.392       .  A
C1529      H1535   1.082       .  S
O1530      C1531   1.334       .  A
C1531      C1532   1.395       .  A
C1532      H1536   1.083       .  S
C1537      C1542   1.379       .  A
C1537      C1538   1.416       .  A
C1537      O1543   1.333       .  A
C1538      C1539   1.416       .  A
C1538      H1549   1.082       .  S
C1539      C1548   1.375       .  A
C1539      C1540   1.380       .  A
C1540      C1541   1.400       .  A
C1540      O1546   1.319       .  A
C1541      C1542   1.401       .  A
C1541      H1550   1.082       .  S
C1542      C1545   1.355       .  A
O1543      C1544   1.338       .  A
C1544      C1545   1.393       .  A
C1545      H1551   1.083       .  S
O1546      C1547   1.331       .  A
C1547      C1548   1.399       .  A
C1548      H1552   1.082       .  S
C1553      C1558   1.380       .  A
C1553      C1554   1.409   1_455  A
C1553      O1559   1.326       .  A
C1554      C1555   1.409       .  A
C1554      H1565   1.082       .  S
C1555      C1564   1.369       .  A
C1555      C1556   1.380       .  A
C1556      C1557   1.400       .  A
C1556      O1562   1.317       .  A
C1557      C1558   1.401   1_655  A
C1557      H1566   1.083       .  S
C1558      C1561   1.357       .  A
O1559      C1560   1.334       .  A
C1560      C1561   1.393       .  A
C1561      H1567   1.083       .  S
O1562      C1563   1.330       .  A
C1563      C1564   1.395       .  A
C1564      H1568   1.082       .  S
C1569      C1574   1.380       .  A
C1569      C1570   1.408       .  A
C1569      O1575   1.325       .  A
C1570      C1571   1.408       .  A
C1570      H1581   1.082       .  S
C1571      C1580   1.366       .  A
C1571      C1572   1.379       .  A
C1572      C1573   1.408       .  A
C1572      O1578   1.324       .  A
C1573      C1574   1.408       .  A
C1573      H1582   1.082       .  S
C1574      C1577   1.367       .  A
O1575      C1576   1.334       .  A
C1576      C1577   1.392       .  A
C1577      H1583   1.082       .  S
O1578      C1579   1.335       .  A
C1579      C1580   1.395       .  A
C1580      H1584   1.083       .  S
C1585      C1590   1.381       .  A
C1585      C1586   1.390       .  A
C1585      O1591   1.306       .  A
C1586      C1587   1.389       .  A
C1586      H1597   1.083       .  S
C1587      C1596   1.345       .  A
C1587      C1588   1.381       .  A
C1588      C1589   1.409       .  A
C1588      O1594   1.324       .  A
C1589      C1590   1.408       .  A
C1589      H1598   1.082       .  S
C1590      C1593   1.369       .  A
O1591      C1592   1.324       .  A
C1592      C1593   1.394       .  A
C1593      H1599   1.082       .  S
O1594      C1595   1.333       .  A
C1595      C1596   1.386       .  A
C1596      H1600   1.083       .  S
C1601      C1606   1.380       .  A
C1601      C1602   1.398       .  A
C1601      O1607   1.313       .  A
C1602      C1603   1.397       .  A
C1602      H1613   1.083       .  S
C1603      C1612   1.355       .  A
C1603      C1604   1.379       .  A
C1604      C1605   1.413       .  A
C1604      O1610   1.327       .  A
C1605      C1606   1.412       .  A
C1605      H1614   1.082       .  S
C1606      C1609   1.375       .  A
O1607      C1608   1.329       .  A
C1608      C1609   1.397       .  A
C1609      H1615   1.082       .  S
O1610      C1611   1.336       .  A
C1611      C1612   1.390       .  A
C1612      H1616   1.083       .  S
C1617      C1622   1.380       .  A
C1617      C1618   1.409       .  A
C1617      O1623   1.322       .  A
C1618      C1619   1.408       .  A
C1618      H1629   1.082       .  S
C1619      C1628   1.371       .  A
C1619      C1620   1.380       .  A
C1620      C1621   1.404       .  A
C1620      O1626   1.318       .  A
C1621      C1622   1.402       .  A
C1621      H1630   1.082       .  S
C1622      C1625   1.365   1_554  A
O1623      C1624   1.333   1_554  A
C1624      C1625   1.389       .  A
C1625      H1631   1.082       .  S
O1626      C1627   1.332       .  A
C1627      C1628   1.395       .  A
C1628      H1632   1.082       .  S
C1633      C1638   1.378       .  A
C1633      C1634   1.412       .  A
C1633      O1639   1.319       .  A
C1634      C1635   1.407       .  A
C1634      H1645   1.082       .  S
C1635      C1644   1.376       .  A
C1635      C1636   1.378       .  A
C1636      C1637   1.406       .  A
C1636      O1642   1.315       .  A
C1637      C1638   1.402       .  A
C1637      H1646   1.082       .  S
C1638      C1641   1.370       .  A
O1639      C1640   1.336       .  A
C1640      C1641   1.392       .  A
C1641      H1647   1.082       .  S
O1642      C1643   1.333       .  A
C1643      C1644   1.396       .  A
C1644      H1648   1.082       .  S
C1649      C1654   1.380       .  A
C1649      C1650   1.394       .  A
C1649      O1655   1.309       .  A
C1650      C1651   1.393       .  A
C1650      H1661   1.083       .  S
C1651      C1660   1.350       .  A
C1651      C1652   1.380       .  A
C1652      C1653   1.411       .  A
C1652      O1658   1.325       .  A
C1653      C1654   1.410       .  A
C1653      H1662   1.082       .  S
C1654      C1657   1.372       .  A
O1655      C1656   1.327       .  A
C1656      C1657   1.396       .  A
C1657      H1663   1.082       .  S
O1658      C1659   1.334       .  A
C1659      C1660   1.388       .  A
C1660      H1664   1.083       .  S
C1665      C1670   1.380       .  A
C1665      C1666   1.402       .  A
C1665      O1671   1.321       .  A
C1666      C1667   1.403       .  A
C1666      H1677   1.082       .  S
C1667      C1676   1.358       .  A
C1667      C1668   1.378       .  A
C1668      C1669   1.416       .  A
C1668      O1674   1.333       .  A
C1669      C1670   1.417       .  A
C1669      H1678   1.082       .  S
C1670      C1673   1.376       .  A
O1671      C1672   1.331   1_545  A
C1672      C1673   1.398   1_565  A
C1673      H1679   1.082   1_545  S
O1674      C1675   1.339       .  A
C1675      C1676   1.394       .  A
C1676      H1680   1.083       .  S
C1681      C1686   1.380       .  A
C1681      C1682   1.398       .  A
C1681      O1687   1.314       .  A
C1682      C1683   1.397       .  A
C1682      H1693   1.083       .  S
C1683      C1692   1.354       .  A
C1683      C1684   1.380       .  A
C1684      C1685   1.411       .  A
C1684      O1690   1.326       .  A
C1685      C1686   1.410       .  A
C1685      H1694   1.082       .  S
C1686      C1689   1.372       .  A
O1687      C1688   1.329       .  A
C1688      C1689   1.396       .  A
C1689      H1695   1.082       .  S
O1690      C1691   1.335       .  A
C1691      C1692   1.389       .  A
C1692      H1696   1.083       .  S
C1697      C1702   1.380       .  A
C1697      C1698   1.409       .  A
C1697      O1703   1.324       .  A
C1698      C1699   1.409       .  A
C1698      H1709   1.082       .  S
C1699      C1708   1.370       .  A
C1699      C1700   1.381       .  A
C1700      C1701   1.399       .  A
C1700      O1706   1.314       .  A
C1701      C1702   1.398       .  A
C1701      H1710   1.083       .  S
C1702      C1705   1.356       .  A
O1703      C1704   1.334       .  A
C1704      C1705   1.390       .  A
C1705      H1711   1.083       .  S
O1706      C1707   1.329       .  A
C1707      C1708   1.395       .  A
C1708      H1712   1.082       .  S
C1713      C1718   1.380       .  A
C1713      C1714   1.407       .  A
C1713      O1719   1.324       .  A
C1714      C1715   1.408       .  A
C1714      H1725   1.082       .  S
C1715      C1724   1.365       .  A
C1715      C1716   1.380       .  A
C1716      C1717   1.407       .  A
C1716      O1722   1.324       .  A
C1717      C1718   1.407       .  A
C1717      H1726   1.082       .  S
C1718      C1721   1.366       .  A
O1719      C1720   1.333       .  A
C1720      C1721   1.392       .  A
C1721      H1727   1.082       .  S
O1722      C1723   1.333       .  A
C1723      C1724   1.396       .  A
C1724      H1728   1.083       .  S
C1729      C1734   1.381       .  A
C1729      C1730   1.395       .  A
C1729      O1735   1.309       .  A
C1730      C1731   1.394       .  A
C1730      H1741   1.083       .  S
C1731      C1740   1.352       .  A
C1731      C1732   1.381       .  A
C1732      C1733   1.408       .  A
C1732      O1738   1.322       .  A
C1733      C1734   1.407       .  A
C1733      H1742   1.082       .  S
C1734      C1737   1.370       .  A
O1735      C1736   1.327       .  A
C1736      C1737   1.393       .  A
C1737      H1743   1.082       .  S
O1738      C1739   1.332       .  A
C1739      C1740   1.387       .  A
C1740      H1744   1.083       .  S
C1745      C1750   1.381       .  A
C1745      C1746   1.395       .  A
C1745      O1751   1.311       .  A
C1746      C1747   1.393       .  A
C1746      H1757   1.083       .  S
C1747      C1756   1.351       .  A
C1747      C1748   1.380       .  A
C1748      C1749   1.410       .  A
C1748      O1754   1.324       .  A
C1749      C1750   1.410       .  A
C1749      H1758   1.082       .  S
C1750      C1753   1.371       .  A
O1751      C1752   1.327       .  A
C1752      C1753   1.396       .  A
C1753      H1759   1.082       .  S
O1754      C1755   1.334       .  A
C1755      C1756   1.387       .  A
C1756      H1760   1.083       .  S
C1761      C1766   1.380       .  A
C1761      C1762   1.410       .  A
C1761      O1767   1.323       .  A
C1762      C1763   1.409       .  A
C1762      H1773   1.082       .  S
C1763      C1772   1.371       .  A
C1763      C1764   1.380       .  A
C1764      C1765   1.406       .  A
C1764      O1770   1.320       .  A
C1765      C1766   1.404       .  A
C1765      H1774   1.082       .  S
C1766      C1769   1.366       .  A
O1767      C1768   1.334       .  A
C1768      C1769   1.390       .  A
C1769      H1775   1.082       .  S
O1770      C1771   1.332       .  A
C1771      C1772   1.396       .  A
C1772      H1776   1.083       .  S
C1777      C1782   1.380       .  A
C1777      C1778   1.408       .  A
C1777      O1783   1.330       .  A
C1778      C1779   1.411       .  A
C1778      H1789   1.082       .  S
C1779      C1788   1.362   1_565  A
C1779      C1780   1.380       .  A
C1780      C1781   1.403       .  A
C1780      O1786   1.326   1_565  A
C1781      C1782   1.406       .  A
C1781      H1790   1.082       .  S
C1782      C1785   1.356       .  A
O1783      C1784   1.334       .  A
C1784      C1785   1.395       .  A
C1785      H1791   1.083       .  S
O1786      C1787   1.332       .  A
C1787      C1788   1.398       .  A
C1788      H1792   1.083       .  S
C1793      C1798   1.379       .  A
C1793      C1794   1.412       .  A
C1793      O1799   1.326       .  A
C1794      C1795   1.411       .  A
C1794      H1805   1.082       .  S
C1795      C1804   1.374       .  A
C1795      C1796   1.380       .  A
C1796      C1797   1.397       .  A
C1796      O1802   1.311       .  A
C1797      C1798   1.395       .  A
C1797      H1806   1.083       .  S
C1798      C1801   1.354       .  A
O1799      C1800   1.335       .  A
C1800      C1801   1.389       .  A
C1801      H1807   1.083       .  S
O1802      C1803   1.328       .  A
C1803      C1804   1.396       .  A
C1804      H1808   1.082       .  S
C1809      C1814   1.380       .  A
C1809      C1810   1.407       .  A
C1809      O1815   1.326       .  A
C1810      C1811   1.408       .  A
C1810      H1821   1.082       .  S
C1811      C1820   1.364       .  A
C1811      C1812   1.380       .  A
C1812      C1813   1.407       .  A
C1812      O1818   1.325       .  A
C1813      C1814   1.408       .  A
C1813      H1822   1.082       .  S
C1814      C1817   1.364       .  A
O1815      C1816   1.332       .  A
C1816      C1817   1.393       .  A
C1817      H1823   1.083       .  S
O1818      C1819   1.333       .  A
C1819      C1820   1.395       .  A
C1820      H1824   1.083       .  S
