geometry optimzed in LAMMPS
_audit_creation_date              2020-12-01 
_audit_creation_method            'lammps2cif' 
_symmetry_space_group_name_H-M    'P1' 
_symmetry_Int_Tables_number       1 
_symmetry_cell_setting            triclinic 
loop_ 
_symmetry_equiv_pos_as_xyz 
  x,y,z 
_cell_length_a                    38.52027946 
_cell_length_b                    38.72952492872041 
_cell_length_c                    42.484560234447066 
_cell_angle_alpha                 89.98890698096353 
_cell_angle_beta                  90.2373046946244 
_cell_angle_gamma                 89.88966705604092 
loop_ 
_atom_site_label 
_atom_site_type_symbol 
_atom_site_fract_x 
_atom_site_fract_y 
_atom_site_fract_z 
_atom_site_charge 
O1          O  0.38675549  0.86748596  0.46896672    -0.81400
C2          C  0.42571040  0.89099948  0.34903792     0.97900
O3          O  0.40729526  0.90474590  0.37002076    -0.70600
O4          O  0.36640608  0.90535853  0.41867344    -0.74200
Al5        Al  0.41591890  0.90493704  0.41322793     1.49000
C6          C  0.34467198  0.88209999  0.41219756     0.93200
O7          O  0.39005895  0.79439642  0.41052661    -0.80400
O8          O  0.46819406  0.80610360  0.42476486    -0.73900
Al9        Al  0.39221041  0.83396731  0.43675495     1.90100
O10         O  0.42437335  0.80670655  0.37177125    -0.73000
O11         O  0.49193242  0.86807974  0.40548376    -0.72900
O12         O  0.44702599  0.86705961  0.35548899    -0.78500
O13         O  0.46340682  0.91682493  0.40558143    -0.76700
O14         O  0.42159196  0.85903148  0.41398762    -1.12900
O15         O  0.42329229  0.90921036  0.45739974    -0.72000
C16         C  0.40322395  0.89436049  0.47664728     0.98700
C17         C  0.40106249  0.78811228  0.38340112     0.95100
Al18       Al  0.45493721  0.83860606  0.39150209     1.55600
O19         O  0.35309138  0.85069693  0.41402493    -0.76700
C20         C  0.49155460  0.90054558  0.40290345     0.99200
C21         C  0.45663763  0.80127988  0.45242636     0.94100
O22         O  0.42834070  0.81466453  0.46110958    -0.82000
O23         O  0.39336413  0.65683845  0.04271289    -0.81400
C24         C  0.43691634  0.63898675  0.16432040     0.97900
O25         O  0.43443473  0.61549454  0.14372009    -0.70600
O26         O  0.37827973  0.61124457  0.10904560    -0.74200
Al27       Al  0.42671288  0.61574547  0.09962054     1.49000
C28         C  0.35218465  0.63071486  0.10611079     0.93200
O29         O  0.38377262  0.71796199  0.10895772    -0.80400
O30         O  0.47771538  0.70382979  0.07846235    -0.73900
Al31       Al  0.39307701  0.68520541  0.07751462     1.90100
O32         O  0.43561919  0.72959162  0.12492669    -0.73000
O33         O  0.49514048  0.65194671  0.11930338    -0.72900
O34         O  0.44389060  0.67019725  0.15724296    -0.78500
O35         O  0.47519374  0.61010192  0.09090811    -0.76700
O36         O  0.42640836  0.66226393  0.09810305    -1.12900
O37         O  0.41842701  0.60854721  0.05571612    -0.72000
C38         C  0.40277960  0.62693346  0.03571291     0.98700
C39         C  0.40408843  0.73766000  0.12305492     0.95100
Al40       Al  0.45992699  0.68652481  0.11781422     1.55600
O41         O  0.35538530  0.66057952  0.09491171    -0.76700
C42         C  0.49901070  0.62240924  0.10784740     0.99200
C43         C  0.45931457  0.71643312  0.05625063     0.94100
O44         O  0.42640642  0.71356993  0.05598708    -0.82000
O45         O  0.30100384  0.56091283  0.29203547    -0.81400
C46         C  0.36134360  0.57970908  0.41167861     0.97900
O47         O  0.33943968  0.55651809  0.40513772    -0.70600
O48         O  0.28044620  0.57386288  0.37922253    -0.74200
Al49       Al  0.31688233  0.54395659  0.36630053     1.49000
C50         C  0.26240120  0.59371142  0.36243877     0.93200
O51         O  0.32548362  0.64439589  0.33333010    -0.80400
O52         O  0.39527366  0.57775281  0.30464051    -0.73900
Al53       Al  0.31449829  0.60080675  0.31433685     1.90100
O54         O  0.38041473  0.63350866  0.34118331    -0.73000
O55         O  0.39707512  0.53960272  0.35707957    -0.72900
O56         O  0.37807630  0.59488409  0.39042949    -0.78500
O57         O  0.35022526  0.50812273  0.35889462    -0.76700
O58         O  0.33837632  0.57629308  0.34279127    -1.12900
O59         O  0.28936295  0.52590360  0.33144089    -0.72000
C60         C  0.28655465  0.53411528  0.30257297     0.98700
C61         C  0.35595800  0.65496433  0.33873091     0.95100
Al62       Al  0.38360391  0.58522314  0.34781129     1.55600
O63         O  0.27261261  0.60251863  0.33578550    -0.76700
C64         C  0.38267594  0.51103409  0.36200896     0.99200
C65         C  0.38115725  0.59543480  0.28309847     0.94100
O66         O  0.35046776  0.60554471  0.28589998    -0.82000
O67         O  0.17283118  0.55938262  0.21800651    -0.81400
C68         C  0.11243133  0.56928503  0.09698344     0.97900
O69         O  0.13632478  0.54838727  0.10474627    -0.70600
O70         O  0.19508164  0.56994793  0.12979443    -0.74200
Al71       Al  0.15983515  0.53866217  0.14389444     1.49000
C72         C  0.21333693  0.58974189  0.14647637     0.93200
O73         O  0.14680281  0.63853622  0.17117677    -0.80400
O74         O  0.07939753  0.57056765  0.20418579    -0.73900
Al75       Al  0.15883818  0.59749192  0.19348794     1.90100
O76         O  0.09185646  0.62571195  0.16539934    -0.73000
O77         O  0.07930768  0.52983012  0.15165127    -0.72900
O78         O  0.09601826  0.58580509  0.11755374    -0.78500
O79         O  0.12840755  0.50134062  0.15245718    -0.76700
O80         O  0.13645470  0.57054379  0.16600093    -1.12900
O81         O  0.18780614  0.52361220  0.17996456    -0.72000
C82         C  0.18893004  0.53280150  0.20876028     0.98700
C83         C  0.11601670  0.64763271  0.16482864     0.95100
Al84       Al  0.09082689  0.57701867  0.16040580     1.55600
O85         O  0.20261138  0.59885419  0.17305347    -0.76700
C86         C  0.09586951  0.50191559  0.14869849     0.99200
C87         C  0.09128613  0.59102975  0.22488347     0.94100
O88         O  0.12110791  0.60367262  0.22146182    -0.82000
O89         O  0.07770546  0.86380049  0.03798753    -0.81400
C90         C  0.04339495  0.87684219  0.16489705     0.97900
O91         O  0.04503031  0.90126730  0.14524120    -0.70600
O92         O  0.10131684  0.90436153  0.11302892    -0.74200
Al93       Al  0.05361252  0.90384399  0.10158590     1.49000
C94         C  0.12668621  0.88634744  0.10438547     0.93200
O95         O  0.09440866  0.80393729  0.10612006    -0.80400
O96         O  0.99840157  0.81855001  0.07580636    -0.73900
Al97       Al  0.08290185  0.83533468  0.07345857     1.90100
O98         O  0.04214750  0.79084535  0.11918184    -0.73000
O99         O  0.98416069  0.86937276  0.11904613    -0.72900
O100        O  0.03605840  0.84636115  0.15597861    -0.78500
O101        O  0.00502461  0.91231080  0.09225480    -0.76700
O102        O  0.05148264  0.85799991  0.09635071    -1.12900
O103        O  0.06483709  0.91409659  0.05884651    -0.72000
C104        C  0.07498594  0.89610299  0.03583090     0.98700
C105        C  0.07389574  0.78368542  0.11948492     0.95100
Al106      Al  0.01808052  0.83362988  0.11552115     1.55600
O107        O  0.12238987  0.86024963  0.08734580    -0.76700
C108        C  0.98092480  0.89958010  0.10874471     0.99200
C109        C  0.01627366  0.80326251  0.05476909     0.94100
O110        O  0.04912786  0.80536741  0.05453195    -0.82000
O111        O  0.07054815  0.64409708  0.47356217    -0.81400
C112        C  0.03427954  0.63276879  0.34467519     0.97900
O113        O  0.03913163  0.60854302  0.36398843    -0.70600
O114        O  0.09920258  0.61326260  0.39174107    -0.74200
Al115      Al  0.05372059  0.60731724  0.40685284     1.49000
C116        C  0.12391141  0.62958270  0.40426404     0.93200
O117        O  0.08842212  0.70771695  0.40822950    -0.80400
O118        O  0.99319919  0.69086125  0.43641335    -0.73900
Al119      Al  0.07737847  0.67465068  0.43934808     1.90100
O120        O  0.03627222  0.71808916  0.39099408    -0.73000
O121        O  0.98057858  0.63648078  0.39588728    -0.72900
O122        O  0.02742650  0.66289708  0.35460785    -0.78500
O123        O  0.00852634  0.59612427  0.42095120    -0.76700
O124        O  0.04772010  0.65233345  0.41434925    -1.12900
O125        O  0.07063453  0.59523723  0.44751308    -0.72000
C126        C  0.07372721  0.61171702  0.47282012     0.98700
C127        C  0.06778206  0.72674925  0.39310064     0.95100
Al128      Al  0.01226368  0.67506147  0.39629894     1.55600
O129        O  0.11804136  0.65077163  0.42607546    -0.76700
C130        C  0.98169635  0.60592206  0.40636596     0.99200
C131        C  0.01084986  0.70681384  0.45721276     0.94100
O132        O  0.04347347  0.70400384  0.45795405    -0.82000
O133        O  0.30427367  0.96317140  0.22089783    -0.81400
C134        C  0.36459516  0.94053016  0.10173010     0.97900
O135        O  0.34385379  0.96547289  0.10727336    -0.70600
O136        O  0.28447196  0.94477785  0.13160324    -0.74200
Al137      Al  0.31798251  0.97728345  0.14574806     1.49000
C138        C  0.26415660  0.92762411  0.14863379     0.93200
O139        O  0.32618716  0.87970914  0.17834277    -0.80400
O140        O  0.39552115  0.95109875  0.20614845    -0.73900
Al141      Al  0.31646746  0.92272515  0.19862429     1.90100
O142        O  0.38217523  0.88894466  0.17531520    -0.73000
O143        O  0.39715970  0.98345095  0.15135445    -0.72900
O144        O  0.37760269  0.92405167  0.12415832    -0.78500
O145        O  0.34972632  0.01422444  0.15569418    -0.76700
O146        O  0.33959322  0.94647511  0.16983189    -1.12900
O147        O  0.28692791  0.99363135  0.17994754    -0.72000
C148        C  0.28524211  0.98657161  0.20934292     0.98700
C149        C  0.35649468  0.86859972  0.17341208     0.95100
Al150      Al  0.38442859  0.93789402  0.16478728     1.55600
O151        O  0.27240901  0.92210059  0.17698613    -0.76700
C152        C  0.38192063  0.01229791  0.14996775     0.99200
C153        C  0.38420508  0.93362737  0.22876763     0.94100
O154        O  0.35534629  0.91802281  0.22701500    -0.82000
O155        O  0.18382910  0.94635059  0.30329255    -0.81400
C156        C  0.11505473  0.95191929  0.41542814     0.97900
O157        O  0.14505671  0.95983858  0.40550315    -0.70600
O158        O  0.19998407  0.95581304  0.36757975    -0.74200
Al159      Al  0.15502743  0.97716844  0.36425862     1.49000
C160        C  0.20913595  0.92459537  0.36660866     0.93200
O161        O  0.13309285  0.87120614  0.33738864    -0.80400
O162        O  0.07601060  0.92091103  0.31210091    -0.73900
Al163      Al  0.15612681  0.91160039  0.32301506     1.90100
O164        O  0.09149525  0.89003557  0.36786875    -0.73000
O165        O  0.07569883  0.98166737  0.34026985    -0.72900
O166        O  0.08959680  0.94915481  0.39675045    -0.78500
O167        O  0.11561290  0.00807645  0.36715967    -0.76700
O168        O  0.13261600  0.94151656  0.34659960    -1.12900
O169        O  0.16754741  0.99638307  0.32364331    -0.72000
C170        C  0.18363677  0.97905601  0.30271459     0.98700
C171        C  0.10890468  0.86557398  0.35651274     0.95100
Al172      Al  0.08726596  0.93605335  0.35347704     1.55600
O173        O  0.18932849  0.90251870  0.35462305    -0.76700
C174        C  0.08509023  0.00743808  0.35621999     0.99200
C175        C  0.09370539  0.91463224  0.28792273     0.94100
O176        O  0.12626932  0.91547940  0.28838581    -0.82000
O177        O  0.62283988  0.41212423  0.22206261    -0.81400
C178        C  0.60664873  0.44647387  0.09934064     0.97900
O179        O  0.58689983  0.43794097  0.12139226    -0.70600
O180        O  0.58777686  0.39431243  0.16720852    -0.74200
Al181      Al  0.58835542  0.44383321  0.16486721     1.49000
C182        C  0.61096134  0.37117865  0.16501987     0.93200
O183        O  0.70101735  0.41457598  0.17004121    -0.80400
O184        O  0.68602543  0.49377939  0.17886576    -0.73900
Al185      Al  0.65820916  0.41796974  0.19185865     1.90100
O186        O  0.69477444  0.44677564  0.12914717    -0.73000
O187        O  0.62812936  0.51510832  0.14701038    -0.72900
O188        O  0.63494792  0.46246166  0.10436207    -0.78500
O189        O  0.57862339  0.49195555  0.16007958    -0.76700
O190        O  0.63505424  0.44676235  0.16625332    -1.12900
O191        O  0.58228349  0.44868156  0.20942660    -0.72000
C192        C  0.59454570  0.42662247  0.22831383     0.98700
C193        C  0.71258312  0.42570868  0.14452803     0.95100
Al194      Al  0.65861005  0.47679140  0.14238300     1.55600
O195        O  0.64253063  0.37870107  0.16956521    -0.76700
C196        C  0.59587721  0.51744381  0.15057468     0.99200
C197        C  0.68918786  0.48272246  0.20723629     0.94100
O198        O  0.67539189  0.45467187  0.21585493    -0.82000
O199        O  0.83759729  0.41366242  0.28372691    -0.81400
C200        C  0.86341208  0.44188234  0.41123997     0.97900
O201        O  0.88545147  0.44020350  0.38952673    -0.70600
O202        O  0.88084773  0.38650842  0.35428967    -0.74200
Al203      Al  0.88256861  0.43373801  0.34554909     1.49000
C204        C  0.86011143  0.36280927  0.34745463     0.93200
O205        O  0.77781185  0.39979709  0.35243914    -0.80400
O206        O  0.79706705  0.49461549  0.32922721    -0.73900
Al207      Al  0.80998302  0.41018305  0.32024831     1.90100
O208        O  0.77270533  0.44984438  0.37398111    -0.73000
O209        O  0.85406377  0.50370116  0.36787536    -0.72900
O210        O  0.83242117  0.45152392  0.40553425    -0.78500
O211        O  0.89288806  0.48083318  0.33731521    -0.76700
O212        O  0.83625057  0.43862624  0.34379751    -1.12900
O213        O  0.88910119  0.42507106  0.30281841    -0.72000
C214        C  0.86987016  0.41649216  0.28034516     0.98700
C215        C  0.76186409  0.41956033  0.37066210     0.95100
Al216      Al  0.81590943  0.47202169  0.36670791     1.55600
O217        O  0.83234564  0.36877718  0.33286417    -0.76700
C218        C  0.88364468  0.50469364  0.35551290     0.99200
C219        C  0.78127430  0.47940606  0.30667164     0.94100
O220        O  0.78264915  0.44692451  0.30354099    -0.82000
O221        O  0.92967013  0.30190320  0.05615632    -0.81400
C222        C  0.93487799  0.37514032  0.16436675     0.97900
O223        O  0.94239051  0.34440087  0.15622854    -0.70600
O224        O  0.93792232  0.28766869  0.12007996    -0.74200
Al225      Al  0.96101263  0.33124757  0.11644661     1.49000
C226        C  0.90626704  0.28005699  0.12001908     0.93200
O227        O  0.85602154  0.35761866  0.08970920    -0.80400
O228        O  0.91475273  0.40999102  0.05719868    -0.73900
Al229      Al  0.89528173  0.33199661  0.07527027     1.90100
O230        O  0.87824496  0.40335763  0.11192490    -0.73000
O231        O  0.97384032  0.40809350  0.09057997    -0.72900
O232        O  0.93499351  0.39976918  0.14467909    -0.78500
O233        O  0.99459562  0.36731601  0.12006192    -0.76700
O234        O  0.92726254  0.35518525  0.09691615    -1.12900
O235        O  0.98064758  0.31631592  0.07696265    -0.72000
C236        C  0.96274873  0.30030711  0.05629944     0.98700
C237        C  0.85229184  0.38524378  0.10498421     0.95100
Al238      Al  0.92578441  0.40119725  0.10057006     1.55600
O239        O  0.88506400  0.30105298  0.10842823    -0.76700
C240        C  0.99783818  0.39672578  0.10805515     0.99200
C241        C  0.90368731  0.39100995  0.03513723     0.94100
O242        O  0.89859226  0.35938447  0.03950039    -0.82000
O243        O  0.93022815  0.21073227  0.45895560    -0.81400
C244        C  0.92254915  0.12937559  0.35378796     0.97900
O245        O  0.93140110  0.16051473  0.35918488    -0.70600
O246        O  0.93160914  0.22002711  0.39206705    -0.74200
Al247      Al  0.95379028  0.17609996  0.39746906     1.49000
C248        C  0.90061857  0.22943936  0.39566834     0.93200
O249        O  0.85114228  0.15915778  0.43551620    -0.80400
O250        O  0.90570265  0.10406651  0.46185917    -0.73900
Al251      Al  0.89330613  0.18207807  0.44491033     1.90100
O252        O  0.86786439  0.11350380  0.40954066    -0.73000
O253        O  0.96317289  0.09991461  0.42758671    -0.72900
O254        O  0.92244417  0.10711611  0.37533834    -0.78500
O255        O  0.98480418  0.13738260  0.39506023    -0.76700
O256        O  0.92090217  0.15597071  0.42088954    -1.12900
O257        O  0.97794134  0.19336842  0.43465531    -0.72000
C258        C  0.96293020  0.21047636  0.45640432     0.98700
C259        C  0.84431275  0.13346387  0.41870029     0.95100
Al260      Al  0.91540949  0.11030076  0.41907056     1.55600
O261        O  0.88055486  0.21154442  0.41188198    -0.76700
C262        C  0.98640970  0.10821623  0.40809443     0.99200
C263        C  0.89994774  0.12376034  0.48468797     0.94100
O264        O  0.90030373  0.15601620  0.48169281    -0.82000
O265        O  0.62802619  0.09470415  0.28895617    -0.81400
C266        C  0.61257824  0.06726843  0.41674546     0.97900
O267        O  0.58830753  0.06671952  0.39665751    -0.70600
O268        O  0.58430096  0.12080865  0.36051000    -0.74200
Al269      Al  0.58715345  0.07241703  0.35236106     1.49000
C270        C  0.60206734  0.14597410  0.35099904     0.93200
O271        O  0.68795205  0.11561942  0.35684063    -0.80400
O272        O  0.67507558  0.01836619  0.33180424    -0.73900
Al273      Al  0.65619330  0.10178653  0.32466439     1.90100
O274        O  0.70092790  0.06457231  0.37384124    -0.73000
O275        O  0.62345467  0.00555782  0.37466642    -0.72900
O276        O  0.64373823  0.06016063  0.40914817    -0.78500
O277        O  0.58091857  0.02366863  0.34533912    -0.76700
O278        O  0.63360265  0.07143593  0.34865651    -1.12900
O279        O  0.57766015  0.08004032  0.30897592    -0.72000
C280        C  0.59580867  0.09018146  0.28618444     0.98700
C281        C  0.70821129  0.09599348  0.37160100     0.95100
Al282      Al  0.65839715  0.03994993  0.37020671     1.55600
O283        O  0.62982899  0.14081527  0.33632614    -0.76700
C284        C  0.59386239  0.00083930  0.36310306     0.99200
C285        C  0.68957958  0.03516731  0.30960429     0.94100
O286        O  0.68691690  0.06773988  0.30777189    -0.82000
O287        O  0.84201890  0.09612884  0.22618448    -0.81400
C288        C  0.85572230  0.06385745  0.10139983     0.97900
O289        O  0.88013797  0.06478310  0.12141143    -0.70600
O290        O  0.88535487  0.11814774  0.15800687    -0.74200
Al291      Al  0.88224997  0.06957792  0.16550927     1.49000
C292        C  0.86550560  0.14328462  0.16338197     0.93200
O293        O  0.78031527  0.11100549  0.15986488    -0.80400
O294        O  0.79576219  0.01523206  0.18744383    -0.73900
Al295      Al  0.81288185  0.09978358  0.19146572     1.90100
O296        O  0.76738984  0.05953004  0.14499937    -0.73000
O297        O  0.84693081  0.00199010  0.14327699    -0.72900
O298        O  0.82482896  0.05566351  0.10898084    -0.78500
O299        O  0.88940155  0.02103754  0.17174818    -0.76700
O300        O  0.83578129  0.06849827  0.16884383    -1.12900
O301        O  0.89129032  0.07546553  0.20914715    -0.72000
C302        C  0.87301166  0.08756097  0.23103822     0.98700
C303        C  0.75939336  0.09086232  0.14702190     0.95100
Al304      Al  0.81120560  0.03601952  0.14830598     1.55600
O305        O  0.83685562  0.13877348  0.17659536    -0.76700
C306        C  0.87710471  0.99812639  0.15391078     0.99200
C307        C  0.78109885  0.03264022  0.20924202     0.94100
O308        O  0.78401082  0.06530696  0.21067336    -0.82000
O309        O  0.53880382  0.31201100  0.46217893    -0.81400
C310        C  0.54107416  0.38433922  0.34841105     0.97900
O311        O  0.51744155  0.36311111  0.35632822    -0.70600
O312        O  0.53149003  0.30045801  0.37722603    -0.74200
Al313      Al  0.50772059  0.33872330  0.39530330     1.49000
C314        C  0.55715705  0.28300937  0.38628359     0.93200
O315        O  0.61553769  0.34550622  0.41598860    -0.80400
O316        O  0.54928914  0.40959287  0.45616692    -0.73900
Al317      Al  0.57435999  0.33066065  0.43749769     1.90100
O318        O  0.60317514  0.39985327  0.41674446    -0.73000
O319        O  0.50924674  0.41758493  0.40503001    -0.72900
O320        O  0.56077361  0.39848006  0.36842849    -0.78500
O321        O  0.47518583  0.37347370  0.40869702    -0.76700
O322        O  0.54521248  0.35680236  0.41493936    -1.12900
O323        O  0.49285058  0.31125480  0.43124240    -0.72000
C324        C  0.50779492  0.30355704  0.45699779     0.98700
C325        C  0.62549629  0.37643398  0.41467975     0.95100
Al326      Al  0.55446240  0.40201692  0.41191999     1.55600
O327        O  0.57437703  0.29228564  0.40999318    -0.76700
C328        C  0.47923305  0.40549795  0.40543881     0.99200
C329        C  0.56767171  0.39357931  0.47626896     0.94100
O330        O  0.58004828  0.36409521  0.46993264    -0.82000
O331        O  0.53934742  0.19967043  0.04970664    -0.81400
C332        C  0.53992090  0.13273594  0.16697390     0.97900
O333        O  0.52155074  0.15875928  0.16010739    -0.70600
O334        O  0.54274913  0.21705203  0.13779708    -0.74200
Al335      Al  0.51260871  0.18259198  0.12148003     1.49000
C336        C  0.56505749  0.23496404  0.12403828     0.93200
O337        O  0.61465066  0.16883283  0.10021254    -0.80400
O338        O  0.54893944  0.10636666  0.05753702    -0.73900
Al339      Al  0.57541242  0.18338190  0.07580963     1.90100
O340        O  0.60012315  0.11403752  0.10230697    -0.73000
O341        O  0.50266585  0.10338112  0.10437207    -0.72900
O342        O  0.55365613  0.11424036  0.14613408    -0.78500
O343        O  0.47508028  0.15207293  0.11162633    -0.76700
O344        O  0.54566652  0.15983547  0.09987908    -1.12900
O345        O  0.49912362  0.21093314  0.08540268    -0.72000
C346        C  0.51111398  0.21389788  0.05761198     0.98700
C347        C  0.62259270  0.13754801  0.10521096     0.95100
Al348      Al  0.55052728  0.11377200  0.10225877     1.55600
O349        O  0.57613528  0.22537881  0.09791057    -0.76700
C350        C  0.47492437  0.11965806  0.10932598     0.99200
C351        C  0.57095133  0.11981840  0.03930096     0.94100
O352        O  0.58356378  0.14856724  0.04627765    -0.82000
C353        C  0.49080834  0.28253479  0.48193839    -0.05000
C354        C  0.48631191  0.24677260  0.47720822    -0.02100
C355        C  0.48854526  0.22378766  0.00297020     0.02900
C356        C  0.49415641  0.23652592  0.03371166    -0.05000
C357        C  0.49199377  0.27248155  0.03896250    -0.02100
C358        C  0.49043015  0.29542667  0.01308581     0.02900
C359        C  0.48186915  0.23331138  0.44574768     0.37500
C360        C  0.49500500  0.28615386  0.07058875     0.37500
C361        C  0.49067609  0.33238943  0.01831067     0.35900
C362        C  0.48764932  0.18673229  0.49770213     0.35900
N363        N  0.49056170  0.36187103  0.02263415    -0.38900
N364        N  0.48705467  0.15719057  0.49363089    -0.38900
N365        N  0.49727720  0.29750499  0.09568805    -0.38300
N366        N  0.47762397  0.22176736  0.42095818    -0.38300
C367        C  0.72504481  0.10396565  0.13516516    -0.05000
C368        C  0.70878505  0.13293202  0.14955687    -0.02100
C369        C  0.67600376  0.14469950  0.13895963     0.02900
C370        C  0.65856461  0.12739438  0.11436493    -0.05000
C371        C  0.67457580  0.09849744  0.10000944    -0.02100
C372        C  0.70764750  0.08709493  0.11005638     0.02900
C373        C  0.72455491  0.14984668  0.17654113     0.37500
C374        C  0.65709803  0.08016699  0.07469529     0.37500
C375        C  0.72369253  0.05809081  0.09401284     0.35900
C376        C  0.65931476  0.17344650  0.15480608     0.35900
N377        N  0.73639809  0.03498646  0.08114021    -0.38900
N378        N  0.64612976  0.19633783  0.16757362    -0.38900
N379        N  0.64331111  0.06510026  0.05473939    -0.38300
N380        N  0.73688278  0.16341738  0.19811802    -0.38300
C381        C  0.56759436  0.25053082  0.36989146    -0.05000
C382        C  0.54321404  0.22528549  0.36065306    -0.02100
C383        C  0.55442400  0.19121352  0.35387631     0.02900
C384        C  0.59010452  0.18228206  0.35643085    -0.05000
C385        C  0.61452163  0.20905819  0.36158918    -0.02100
C386        C  0.60310106  0.24317977  0.36636816     0.02900
C387        C  0.50708980  0.23472967  0.35638131     0.37500
C388        C  0.65145336  0.20189655  0.36309574     0.37500
C389        C  0.62715036  0.27157614  0.36291040     0.35900
C390        C  0.52939237  0.16589469  0.34301737     0.35900
N391        N  0.64563116  0.29443733  0.35806112    -0.38900
N392        N  0.50948005  0.14577443  0.33408078    -0.38900
N393        N  0.68097130  0.19652397  0.36457112    -0.38300
N394        N  0.47835741  0.24242601  0.35237308    -0.38300
C395        C  0.71041011  0.01826476  0.28430645    -0.05000
C396        C  0.74591544  0.01061604  0.28934052    -0.02100
C397        C  0.76916608  0.00902315  0.26345845     0.02900
C398        C  0.75726341  0.01654554  0.23269353    -0.05000
C399        C  0.72115549  0.01939444  0.22741883    -0.02100
C400        C  0.69785553  0.01992219  0.25305295     0.02900
C401        C  0.75903766  0.00794679  0.32126750     0.37500
C402        C  0.70816404  0.02478220  0.19570532     0.37500
C403        C  0.66107413  0.02502469  0.24736067     0.35900
C404        C  0.80576037  0.00228016  0.26863318     0.35900
N405        N  0.63174679  0.02892940  0.24257329    -0.38900
N406        N  0.83498361  0.99684660  0.27275708    -0.38900
N407        N  0.69754155  0.02903079  0.17048353    -0.38300
N408        N  0.76939058  0.00602710  0.34682193    -0.38300
C409        C  0.60368354  0.07780104  0.44936743    -0.05000
C410        C  0.57290358  0.06585645  0.46394460    -0.02100
C411        C  0.56433798  0.07647056  0.99467137     0.02900
C412        C  0.58345992  0.10291628  0.00959876    -0.05000
C413        C  0.61476048  0.11451686  0.49504600    -0.02100
C414        C  0.62442556  0.10227018  0.46511911     0.02900
C415        C  0.54852936  0.04413125  0.44697091     0.37500
C416        C  0.63833274  0.13813151  0.51095801     0.37500
C417        C  0.65386306  0.11785366  0.44926141     0.35900
C418        C  0.53734343  0.05814817  0.01131535     0.35900
N419        N  0.67692706  0.13101842  0.43672110    -0.38900
N420        N  0.51690523  0.04196730  0.02459834    -0.38900
N421        N  0.65730323  0.15682196  0.52348914    -0.38300
N422        N  0.52830878  0.02760537  0.43355211    -0.38300
C423        C  0.57861240  0.10127919  0.25664346    -0.05000
C424        C  0.58354618  0.13563167  0.24604747    -0.02100
C425        C  0.56715240  0.14723312  0.21837755     0.02900
C426        C  0.54762362  0.12405632  0.20001668    -0.05000
C427        C  0.54100868  0.09043508  0.21131124    -0.02100
C428        C  0.55584861  0.07931204  0.23999572     0.02900
C429        C  0.60550221  0.15945845  0.26342952     0.37500
C430        C  0.51865937  0.06749610  0.19339564     0.37500
C431        C  0.54848788  0.04501472  0.25169415     0.35900
C432        C  0.57110660  0.18291892  0.20859856     0.35900
N433        N  0.54218607  0.01762184  0.26083233    -0.38900
N434        N  0.57412323  0.21162060  0.20158285    -0.38900
N435        N  0.50069637  0.04940539  0.17904848    -0.38300
N436        N  0.62312284  0.17888950  0.27660645    -0.38300
C437        C  0.86454068  0.07489250  0.06912703    -0.05000
C438        C  0.84348834  0.09948258  0.05359530    -0.02100
C439        C  0.85627993  0.11709204  0.02715453     0.02900
C440        C  0.88903424  0.10832114  0.51458506    -0.05000
C441        C  0.90879613  0.08164838  0.02837172    -0.02100
C442        C  0.89732616  0.06597669  0.05624538     0.02900
C443        C  0.80899019  0.10756353  0.06500936     0.37500
C444        C  0.94142555  0.07097388  0.01431204     0.37500
C445        C  0.92022102  0.04160745  0.07195623     0.35900
C446        C  0.83521700  0.14402072  0.51263685     0.35900
N447        N  0.93940488  0.02292837  0.08428780    -0.38900
N448        N  0.81822856  0.16539106  0.50131992    -0.38900
N449        N  0.96716861  0.06218624  0.50287121    -0.38300
N450        N  0.78117529  0.11398110  0.07335475    -0.38300
C451        C  0.91108044  0.11751649  0.32236354    -0.05000
C452        C  0.93341350  0.11885096  0.29620024    -0.02100
C453        C  0.92280184  0.10411859  0.26723819     0.02900
C454        C  0.88772555  0.09388334  0.26288574    -0.05000
C455        C  0.86555353  0.09310419  0.28928044    -0.02100
C456        C  0.87871314  0.10061182  0.31913554     0.02900
C457        C  0.96792717  0.13330052  0.29960979     0.37500
C458        C  0.82878365  0.08508258  0.28654521     0.37500
C459        C  0.85968960  0.08693043  0.34567366     0.35900
C460        C  0.94820968  0.09877562  0.24265973     0.35900
N461        N  0.84338917  0.07284759  0.36452792    -0.38900
N462        N  0.96870582  0.09382372  0.22331640    -0.38900
N463        N  0.79920721  0.08017343  0.28506031    -0.38300
N464        N  0.99540727  0.14497199  0.30235919    -0.38300
C465        C  0.80814419  0.12691848  0.40879977    -0.05000
C466        C  0.78802649  0.10242771  0.42489212    -0.02100
C467        C  0.75456127  0.09392167  0.41382769     0.02900
C468        C  0.74136597  0.10899012  0.38570754    -0.05000
C469        C  0.76151297  0.13434425  0.37007343    -0.02100
C470        C  0.79466464  0.14338439  0.38177320     0.02900
C471        C  0.80229526  0.08513308  0.45237544     0.37500
C472        C  0.74932864  0.14987902  0.34096978     0.37500
C473        C  0.81580820  0.16837639  0.36509027     0.35900
C474        C  0.73373457  0.06987468  0.43186573     0.35900
N475        N  0.83281238  0.18815551  0.35178780    -0.38900
N476        N  0.71721190  0.05083175  0.44648865    -0.38900
N477        N  0.73981502  0.16239479  0.31773905    -0.38300
N478        N  0.81374503  0.07107493  0.47410423    -0.38300
C479        C  0.89438912  0.24600175  0.13275105    -0.05000
C480        C  0.91435193  0.22849915  0.15590689    -0.02100
C481        C  0.90554544  0.19464488  0.16518219     0.02900
C482        C  0.87528507  0.17873728  0.15337581    -0.05000
C483        C  0.85348440  0.19740526  0.13266761    -0.02100
C484        C  0.86355829  0.23016994  0.12140904     0.02900
C485        C  0.94301016  0.24579742  0.17164170     0.37500
C486        C  0.82028694  0.18318374  0.12305596     0.37500
C487        C  0.84225893  0.24678963  0.09752694     0.35900
C488        C  0.92699902  0.17716069  0.18821499     0.35900
N489        N  0.82514411  0.25980681  0.07844971    -0.38900
N490        N  0.94494120  0.16450251  0.20677802    -0.38900
N491        N  0.79332316  0.17269281  0.11581703    -0.38300
N492        N  0.96555597  0.25967901  0.18450312    -0.38300
C493        C  0.97935702  0.27719215  0.03252288    -0.05000
C494        C  0.97944874  0.24117159  0.03773529    -0.02100
C495        C  0.98157220  0.21804590  0.01202775     0.02900
C496        C  0.98185888  0.23084230  0.48075870    -0.05000
C497        C  0.98704976  0.26658196  0.47597796    -0.02100
C498        C  0.98680434  0.28957779  0.00202853     0.02900
C499        C  0.97469517  0.22789897  0.06932736     0.37500
C500        C  0.98919633  0.27979450  0.44413760     0.37500
C501        C  0.99128647  0.32643125  0.49710454     0.35900
C502        C  0.97999332  0.18109086  0.01731933     0.35900
N503        N  0.99483109  0.35580421  0.49329278    -0.38900
N504        N  0.97897299  0.15158144  0.02147721    -0.38900
N505        N  0.99079572  0.29021020  0.41865126    -0.38300
N506        N  0.97094827  0.21713535  0.09449169    -0.38300
C507        C  0.92279081  0.38309473  0.19666905    -0.05000
C508        C  0.93121000  0.41526989  0.21077891    -0.02100
C509        C  0.91329004  0.42662874  0.23771054     0.02900
C510        C  0.88643713  0.40636092  0.25047797    -0.05000
C511        C  0.87836128  0.37406639  0.23683689    -0.02100
C512        C  0.89685434  0.36220289  0.21044854     0.02900
C513        C  0.95685151  0.43793704  0.19680559     0.37500
C514        C  0.85112641  0.35261228  0.25003616     0.37500
C515        C  0.88706143  0.32946990  0.19645436     0.35900
C516        C  0.92096990  0.46029994  0.25108378     0.35900
N517        N  0.87855780  0.30326974  0.18593022    -0.38900
N518        N  0.92693364  0.48718589  0.26167303    -0.38900
N519        N  0.82948668  0.33539452  0.26043074    -0.38300
N520        N  0.97669328  0.45680977  0.18587268    -0.38300
C521        C  0.87489382  0.43060973  0.44319668    -0.05000
C522        C  0.86594396  0.44927376  0.47056889    -0.02100
C523        C  0.87750514  0.43772688  0.00054768     0.02900
C524        C  0.89502088  0.40562090  0.00360930    -0.05000
C525        C  0.90117698  0.38593313  0.47624153    -0.02100
C526        C  0.89528292  0.40025654  0.44645932     0.02900
C527        C  0.84599063  0.48091255  0.46785938     0.37500
C528        C  0.91036659  0.34958302  0.47795062     0.37500
C529        C  0.91190326  0.38349916  0.41993554     0.35900
C530        C  0.86893258  0.45769749  0.02833121     0.35900
N531        N  0.92727075  0.36951723  0.40034157    -0.38900
N532        N  0.86210304  0.47356614  0.05055157    -0.38900
N533        N  0.91566355  0.32017778  0.47857650    -0.38300
N534        N  0.82996098  0.50610493  0.46567476    -0.38300
C535        C  0.86812464  0.32764019  0.35822664    -0.05000
C536        C  0.89039908  0.30626261  0.34063133    -0.02100
C537        C  0.89964695  0.27337446  0.35209854     0.02900
C538        C  0.88802844  0.26246000  0.38202368    -0.05000
C539        C  0.86552056  0.28412511  0.39959413    -0.02100
C540        C  0.85572972  0.31662351  0.38767606     0.02900
C541        C  0.90522515  0.31868935  0.31145080     0.37500
C542        C  0.85333353  0.27391978  0.43052770     0.37500
C543        C  0.83456435  0.33971418  0.40658550     0.35900
C544        C  0.92038500  0.25052212  0.33264224     0.35900
N545        N  0.81801848  0.35825981  0.42176217    -0.38900
N546        N  0.93671319  0.23221786  0.31703468    -0.38900
N547        N  0.84338634  0.26588754  0.45513187    -0.38300
N548        N  0.91785103  0.32838591  0.28843543    -0.38300
C549        C  0.72947948  0.40762290  0.38733591    -0.05000
C550        C  0.72047197  0.37204058  0.38896877    -0.02100
C551        C  0.68861821  0.36166668  0.40245680     0.02900
C552        C  0.66292922  0.38645309  0.40978232    -0.05000
C553        C  0.67343306  0.42159713  0.41179612    -0.02100
C554        C  0.70689414  0.43173670  0.40200680     0.02900
C555        C  0.74372080  0.34553163  0.37722080     0.37500
C556        C  0.65065675  0.44771758  0.42514733     0.37500
C557        C  0.71770116  0.46708564  0.40785345     0.35900
C558        C  0.68403571  0.32591592  0.41161169     0.35900
N559        N  0.72612261  0.49521812  0.41297194    -0.38900
N560        N  0.68104368  0.29756653  0.41979379    -0.38900
N561        N  0.63263861  0.46863594  0.43571377    -0.38300
N562        N  0.76183974  0.32418097  0.36755860    -0.38300
C563        C  0.74824231  0.41542191  0.13374702    -0.05000
C564        C  0.77573414  0.41313560  0.15595439    -0.02100
C565        C  0.81007260  0.40753791  0.14571739     0.02900
C566        C  0.81676697  0.39668139  0.11462214    -0.05000
C567        C  0.78945462  0.39832499  0.09239889    -0.02100
C568        C  0.75633740  0.41076460  0.10142523     0.02900
C569        C  0.76957987  0.41858946  0.18930440     0.37500
C570        C  0.79616554  0.39002628  0.05965947     0.37500
C571        C  0.73233599  0.42152481  0.07702449     0.35900
C572        C  0.83828984  0.41772874  0.16609614     0.35900
N573        N  0.71452295  0.43130213  0.05690347    -0.38900
N574        N  0.86004025  0.42871143  0.18192467    -0.38900
N575        N  0.80159000  0.38329436  0.03359437    -0.38300
N576        N  0.76501641  0.42235993  0.21599747    -0.38300
C577        C  0.71165102  0.49993284  0.23152493    -0.05000
C578        C  0.74763522  0.50373646  0.22612610    -0.02100
C579        C  0.77147425  0.50168176  0.25170666     0.02900
C580        C  0.75940156  0.49812783  0.28295639    -0.05000
C581        C  0.72345547  0.50142624  0.28846205    -0.02100
C582        C  0.69967056  0.50160280  0.26296479     0.02900
C583        C  0.76031107  0.50603065  0.19413864     0.37500
C584        C  0.71058178  0.50181233  0.32039918     0.37500
C585        C  0.66267771  0.50026651  0.26916325     0.35900
C586        C  0.80845027  0.50010411  0.24573393     0.35900
N587        N  0.63322297  0.49883936  0.27421445    -0.38900
N588        N  0.83798601  0.49873704  0.24101762    -0.38900
N589        N  0.69948966  0.50269840  0.34562546    -0.38300
N590        N  0.77033302  0.50801291  0.16856113    -0.38300
C591        C  0.60047822  0.33488653  0.15735105    -0.05000
C592        C  0.62369394  0.31216865  0.14186763    -0.02100
C593        C  0.61230169  0.27949886  0.13144374     0.02900
C594        C  0.57804608  0.26808431  0.13779056    -0.05000
C595        C  0.55591908  0.28944811  0.15586364    -0.02100
C596        C  0.56678300  0.32273865  0.16511511     0.02900
C597        C  0.65957415  0.32192968  0.13645221     0.37500
C598        C  0.52129616  0.27796001  0.16424766     0.37500
C599        C  0.54312202  0.34394138  0.18342149     0.35900
C600        C  0.63640818  0.25774602  0.11419152     0.35900
N601        N  0.52420091  0.36072734  0.19800896    -0.38900
N602        N  0.65581732  0.24085217  0.10025151    -0.38900
N603        N  0.49368107  0.26895791  0.17102230    -0.38300
N604        N  0.68836760  0.32923065  0.13254733    -0.38300
C605        C  0.57744511  0.40949140  0.50706967    -0.05000
C606        C  0.55422281  0.43070554  0.02422471    -0.02100
C607        C  0.56406048  0.44388012  0.05404812     0.02900
C608        C  0.59679037  0.43532312  0.06719089    -0.05000
C609        C  0.61847564  0.41214599  0.05121895    -0.02100
C610        C  0.61039133  0.40164644  0.02047878     0.02900
C611        C  0.51958168  0.43749830  0.51228608     0.37500
C612        C  0.64592429  0.39454053  0.06824240     0.37500
C613        C  0.63672801  0.38311009  0.00281473     0.35900
C614        C  0.53967094  0.46452490  0.07200187     0.35900
N615        N  0.65793246  0.36848900  0.48886611    -0.38900
N616        N  0.52005538  0.48064440  0.08645404    -0.38900
N617        N  0.66670240  0.37924744  0.08217483    -0.38300
N618        N  0.49163578  0.44272490  0.50336454    -0.38300
C619        C  0.54681049  0.39324743  0.31506303    -0.05000
C620        C  0.54253944  0.42771804  0.30489781    -0.02100
C621        C  0.55627297  0.43854405  0.27571217     0.02900
C622        C  0.57553307  0.41513207  0.25708681    -0.05000
C623        C  0.57747968  0.37986279  0.26660241    -0.02100
C624        C  0.56248344  0.36901482  0.29509242     0.02900
C625        C  0.52438211  0.45212954  0.32488750     0.37500
C626        C  0.59562206  0.35428162  0.24780384     0.37500
C627        C  0.56458489  0.33300998  0.30444737     0.35900
C628        C  0.55194269  0.47411861  0.26586856     0.35900
N629        N  0.56620222  0.30413624  0.31127383    -0.38900
N630        N  0.54826782  0.50253534  0.25810740    -0.38900
N631        N  0.61037501  0.33346040  0.23358525    -0.38300
N632        N  0.50981154  0.47144075  0.34091146    -0.38300
C633        C  0.01252600  0.08229895  0.39623694    -0.05000
C634        C  0.04623745  0.09270002  0.38681277    -0.02100
C635        C  0.06954635  0.06880724  0.37279637     0.02900
C636        C  0.05912415  0.03442143  0.36637700    -0.05000
C637        C  0.02464680  0.02466038  0.37410663    -0.02100
C638        C  0.00195597  0.04804610  0.38933605     0.02900
C639        C  0.05714722  0.12819177  0.39133529     0.37500
C640        C  0.01228941  0.98986356  0.36807725     0.37500
C641        C  0.96720909  0.03634620  0.39703999     0.35900
C642        C  0.10428588  0.07998785  0.36460334     0.35900
N643        N  0.93977897  0.02610353  0.40289877    -0.38900
N644        N  0.13205495  0.08886791  0.35824114    -0.38900
N645        N  0.00164691  0.96235751  0.36359300    -0.38300
N646        N  0.06570658  0.15661449  0.39452667    -0.38300
C647        C  0.40181555  0.04300000  0.13826221    -0.05000
C648        C  0.41995916  0.04075822  0.10932859    -0.02100
C649        C  0.43680870  0.06982774  0.09680585     0.02900
C650        C  0.44296628  0.09890051  0.11560582    -0.05000
C651        C  0.42504191  0.10172225  0.14461736    -0.02100
C652        C  0.40313629  0.07448943  0.15510487     0.02900
C653        C  0.42524000  0.00801448  0.09370450     0.37500
C654        C  0.43048929  0.13166969  0.16444211     0.37500
C655        C  0.38462598  0.07763872  0.18458349     0.35900
C656        C  0.44637718  0.07075525  0.06390250     0.35900
N657        N  0.36981051  0.08004912  0.20812667    -0.38900
N658        N  0.45225928  0.07250073  0.03728175    -0.38900
N659        N  0.43487717  0.15557526  0.18029740    -0.38300
N660        N  0.43206752  0.98226441  0.08141482    -0.38300
C661        C  0.25715778  0.00068467  0.23028391    -0.05000
C662        C  0.22198969  0.99518944  0.22198362    -0.02100
C663        C  0.19644473  0.99147478  0.24570582     0.02900
C664        C  0.20523345  0.99569925  0.27782439    -0.05000
C665        C  0.23890273  0.00723608  0.28552283    -0.02100
C666        C  0.26477462  0.00937270  0.26194932     0.02900
C667        C  0.21228539  0.99110372  0.18922015     0.37500
C668        C  0.24772821  0.01384031  0.31819602     0.37500
C669        C  0.29952802  0.01975331  0.27055633     0.35900
C670        C  0.16163477  0.98086725  0.23713097     0.35900
N671        N  0.32690797  0.02875209  0.27808515    -0.38900
N672        N  0.13402433  0.97222519  0.22985420    -0.38900
N673        N  0.25459464  0.01910235  0.34430174    -0.38300
N674        N  0.20413607  0.98851457  0.16308959    -0.38300
C675        C  0.90912028  0.53106403  0.36681978    -0.05000
C676        C  0.90062301  0.56648492  0.36692810    -0.02100
C677        C  0.92291688  0.59088149  0.38153144     0.02900
C678        C  0.95403985  0.58011038  0.39696985    -0.05000
C679        C  0.96119853  0.54405344  0.39836219    -0.02100
C680        C  0.93977932  0.52013331  0.38241847     0.02900
C681        C  0.86943771  0.57799950  0.35076589     0.37500
C682        C  0.99094210  0.53069197  0.41571577     0.37500
C683        C  0.95007856  0.48403744  0.38228990     0.35900
C684        C  0.91320621  0.62707540  0.38064740     0.35900
N685        N  0.95965411  0.45569143  0.38254278    -0.38900
N686        N  0.90543405  0.65594114  0.37978650    -0.38900
N687        N  0.01445716  0.51962970  0.42949530    -0.38300
N688        N  0.84465314  0.58712087  0.33768065    -0.38300
C689        C  0.08011213  0.76059683  0.37954296    -0.05000
C690        C  0.05670861  0.78283530  0.36322818    -0.02100
C691        C  0.06583616  0.81743117  0.35706300     0.02900
C692        C  0.09943983  0.82949872  0.36425056    -0.05000
C693        C  0.12433739  0.80641589  0.37652425    -0.02100
C694        C  0.11483824  0.77224090  0.38432415     0.02900
C695        C  0.02378571  0.77019975  0.35116741     0.37500
C696        C  0.15971124  0.81804050  0.38171904     0.37500
C697        C  0.14158310  0.74918112  0.39628411     0.35900
C698        C  0.04074151  0.84048968  0.34236203     0.35900
N699        N  0.16306695  0.73084591  0.40555367    -0.38900
N700        N  0.02077007  0.85892069  0.33076690    -0.38900
N701        N  0.18801339  0.82710491  0.38569832    -0.38300
N702        N  0.99758703  0.76029851  0.34124742    -0.38300
C703        C  0.95069991  0.92109137  0.11993373    -0.05000
C704        C  0.92786342  0.93778244  0.09882691    -0.02100
C705        C  0.90078564  0.95933973  0.11036164     0.02900
C706        C  0.89933950  0.96842431  0.14283362    -0.05000
C707        C  0.92116496  0.95047940  0.16393866    -0.02100
C708        C  0.94449197  0.92501125  0.15273156     0.02900
C709        C  0.93134539  0.93163899  0.06534012     0.37500
C710        C  0.91891424  0.95740336  0.19743162     0.37500
C711        C  0.96023093  0.90169440  0.17531014     0.35900
C712        C  0.87480155  0.97227781  0.08854325     0.35900
N713        N  0.97099298  0.88267759  0.19396651    -0.38900
N714        N  0.85384481  0.98206637  0.07107613    -0.38900
N715        N  0.91726927  0.96310436  0.22412371    -0.38300
N716        N  0.93414463  0.92665567  0.03861223    -0.38300
C717        C  0.16221528  0.89571620  0.11466548    -0.05000
C718        C  0.17718206  0.87940349  0.14101743    -0.02100
C719        C  0.21052184  0.88913325  0.15179618     0.02900
C720        C  0.22976909  0.91514196  0.13580260    -0.05000
C721        C  0.21488694  0.93017920  0.10818851    -0.02100
C722        C  0.18121217  0.92072215  0.09806693     0.02900
C723        C  0.15798616  0.85251283  0.15716623     0.37500
C724        C  0.23331538  0.95618732  0.09022863     0.37500
C725        C  0.16588098  0.93698098  0.07050675     0.35900
C726        C  0.22460847  0.87181965  0.17933910     0.35900
N727        N  0.15377136  0.95012974  0.04859152    -0.38900
N728        N  0.23553737  0.85802340  0.20143895    -0.38900
N729        N  0.24785644  0.97685624  0.07569558    -0.38300
N730        N  0.14270849  0.83095408  0.16986170    -0.38300
C731        C  0.99534487  0.73170362  0.48030423    -0.05000
C732        C  0.99021860  0.72159187  0.01194020    -0.02100
C733        C  0.99263952  0.74610615  0.03668984     0.02900
C734        C  0.00015482  0.78100659  0.03002547    -0.05000
C735        C  0.00064630  0.79180107  0.99830528    -0.02100
C736        C  0.99749000  0.76739012  0.47362711     0.02900
C737        C  0.98289159  0.68596579  0.01921404     0.37500
C738        C  0.00683174  0.82792300  0.49096800     0.37500
C739        C  0.99775336  0.77891834  0.44127344     0.35900
C740        C  0.99018821  0.73490604  0.06916319     0.35900
N741        N  0.99712926  0.78882896  0.41562088    -0.38900
N742        N  0.98817496  0.72587713  0.09505122    -0.38900
N743        N  0.01186470  0.85667031  0.48514511    -0.38300
N744        N  0.97593547  0.65793436  0.02596003    -0.38300
C745        C  0.05111213  0.88513782  0.19858149    -0.05000
C746        C  0.06566825  0.85989980  0.21891882    -0.02100
C747        C  0.07874643  0.86960346  0.24860519     0.02900
C748        C  0.07631703  0.90417060  0.25869090    -0.05000
C749        C  0.05926176  0.92878991  0.24003796    -0.02100
C750        C  0.04705763  0.91963687  0.20992077     0.02900
C751        C  0.06896770  0.82414732  0.20928867     0.37500
C752        C  0.05587927  0.96404462  0.25132886     0.37500
C753        C  0.03087499  0.94634629  0.19081780     0.35900
C754        C  0.09547845  0.84398074  0.26856948     0.35900
N755        N  0.01829544  0.96787980  0.17567270    -0.38900
N756        N  0.10886469  0.82330594  0.28412792    -0.38900
N757        N  0.05346120  0.99213095  0.26036681    -0.38300
N758        N  0.07193170  0.79543026  0.20232715    -0.38300
C759        C  0.08674102  0.91306851  0.00634436    -0.05000
C760        C  0.06834612  0.94120038  0.49322446    -0.02100
C761        C  0.07960296  0.95621844  0.46477064     0.02900
C762        C  0.10893314  0.94290864  0.44886100    -0.05000
C763        C  0.12848344  0.91619620  0.46290337    -0.02100
C764        C  0.11791065  0.90183616  0.99181248     0.02900
C765        C  0.03712420  0.95390725  0.00836676     0.37500
C766        C  0.15823808  0.90163910  0.44675755     0.37500
C767        C  0.13995048  0.87612688  0.00683306     0.35900
C768        C  0.06099783  0.98564153  0.45207718     0.35900
N769        N  0.15787105  0.85588468  0.01868980    -0.38900
N770        N  0.04597004  0.00942629  0.44275745    -0.38900
N771        N  0.18183501  0.88955932  0.43407522    -0.38300
N772        N  0.01230784  0.96409781  0.02053527    -0.38300
C773        C  0.02803790  0.41919799  0.11747116    -0.05000
C774        C  0.04366290  0.44154304  0.09554256    -0.02100
C775        C  0.06872264  0.46595070  0.10553157     0.02900
C776        C  0.07650176  0.47046512  0.13792461    -0.05000
C777        C  0.06297024  0.44657814  0.15957422    -0.02100
C778        C  0.03994587  0.42023694  0.14929501     0.02900
C779        C  0.03480626  0.43868628  0.06239909     0.37500
C780        C  0.07258591  0.44935832  0.19249721     0.37500
C781        C  0.02790528  0.39502387  0.17198575     0.35900
C782        C  0.08801046  0.48450485  0.08186961     0.35900
N783        N  0.01861633  0.37485316  0.19019012    -0.38900
N784        N  0.10351762  0.49712408  0.06169440    -0.38900
N785        N  0.08041517  0.45161189  0.21874324    -0.38300
N786        N  0.02776414  0.43635679  0.03597318    -0.38300
C787        C  0.03976973  0.62509408  0.31039486    -0.05000
C788        C  0.05765913  0.64896198  0.29134571    -0.02100
C789        C  0.07377469  0.63789223  0.26328451     0.02900
C790        C  0.07035883  0.60315777  0.25256576    -0.05000
C791        C  0.04823685  0.58074102  0.26928128    -0.02100
C792        C  0.03349239  0.59141613  0.29824219     0.02900
C793        C  0.06252124  0.68432200  0.30181416     0.37500
C794        C  0.04217602  0.54599449  0.25778876     0.37500
C795        C  0.01248332  0.56715872  0.31581699     0.35900
C796        C  0.09546724  0.66245859  0.24665191     0.35900
N797        N  0.99593430  0.54741615  0.32958771    -0.38900
N798        N  0.11309072  0.68238688  0.23424330    -0.38900
N799        N  0.03714190  0.51832768  0.24856502    -0.38300
N800        N  0.06657022  0.71257072  0.30986860    -0.38300
C801        C  0.10186481  0.57416460  0.06350954    -0.05000
C802        C  0.12601195  0.57126198  0.03856460    -0.02100
C803        C  0.11588013  0.58046396  0.00773735     0.02900
C804        C  0.08207184  0.59308786  0.50205635    -0.05000
C805        C  0.05666120  0.58931213  0.02516054    -0.02100
C806        C  0.06638118  0.58063068  0.05607205     0.07700
C807        C  0.16081474  0.55823038  0.04413798     0.37500
C808        C  0.02043190  0.59032649  0.01588047     0.37500
C809        C  0.03944424  0.57693090  0.07962681     0.35900
C810        C  0.13913040  0.57467345  0.48157577     0.35900
N811        N  0.01786493  0.57400428  0.09830536    -0.38900
N812        N  0.15738074  0.56848482  0.46076124    -0.38900
N813        N  0.99174313  0.58945723  0.00774338    -0.38300
N814        N  0.18843234  0.54729083  0.04836589    -0.38300
C815        C  0.10713573  0.68411108  0.15658220    -0.05000
C816        C  0.13092206  0.70522331  0.14020318    -0.02100
C817        C  0.12086060  0.73832430  0.12945878     0.02900
C818        C  0.08650518  0.75070420  0.13442849    -0.05000
C819        C  0.06359041  0.73034763  0.15290576    -0.02100
C820        C  0.07372965  0.69741039  0.16360059     0.02900
C821        C  0.16539850  0.69243292  0.13285621     0.37500
C822        C  0.02943000  0.74298428  0.16176751     0.37500
C823        C  0.04913895  0.67739541  0.18204227     0.35900
C824        C  0.14633497  0.75902081  0.11286205     0.35900
N825        N  0.02929702  0.66166802  0.19650927    -0.38900
N826        N  0.16685181  0.77537264  0.09981603    -0.38900
N827        N  0.00221423  0.75282177  0.16908693    -0.38300
N828        N  0.19293755  0.68233945  0.12698627    -0.38300
C829        C  0.40452812  0.48236849  0.37526047    -0.05000
C830        C  0.43101625  0.49063098  0.39736561    -0.02100
C831        C  0.45344271  0.46494552  0.40910917     0.02900
C832        C  0.44979934  0.43009563  0.39953627    -0.05000
C833        C  0.42169331  0.42128650  0.37936461    -0.02100
C834        C  0.39917657  0.44730667  0.36732934     0.02900
C835        C  0.43590411  0.52582472  0.40848211     0.37500
C836        C  0.41716627  0.38586678  0.36914218     0.37500
C837        C  0.37169036  0.43811112  0.34550043     0.35900
C838        C  0.48156614  0.47532841  0.43000454     0.35900
N839        N  0.34974122  0.43078940  0.32806736    -0.38900
N840        N  0.50428501  0.48441549  0.44585102    -0.38900
N841        N  0.41351705  0.35761110  0.36092527    -0.38300
N842        N  0.44073069  0.55357016  0.41759274    -0.38300
C843        C  0.22791717  0.60583687  0.37294618    -0.05000
C844        C  0.19991720  0.60608037  0.35134876    -0.02100
C845        C  0.16623046  0.61356268  0.36172017     0.02900
C846        C  0.16018568  0.62352895  0.39328812    -0.05000
C847        C  0.18908428  0.62726434  0.41396238    -0.02100
C848        C  0.22262643  0.61744147  0.40401773     0.02900
C849        C  0.20531191  0.59870795  0.31812956     0.37500
C850        C  0.18474183  0.64048033  0.44567626     0.37500
C851        C  0.25195843  0.62063617  0.42540513     0.35900
C852        C  0.13806797  0.61070528  0.33921935     0.35900
N853        N  0.27535393  0.62326225  0.44240596    -0.38900
N854        N  0.11636016  0.60732348  0.32067797    -0.38900
N855        N  0.18151207  0.65098506  0.47101166    -0.38300
N856        N  0.20933391  0.59367538  0.29153320    -0.38300
C857        C  0.26267728  0.51534696  0.28073110    -0.05000
C858        C  0.22712491  0.51276952  0.28838717    -0.02100
C859        C  0.20184565  0.51349733  0.26413459     0.02900
C860        C  0.21213554  0.51523287  0.23221126    -0.05000
C861        C  0.24740056  0.50896300  0.22490864    -0.02100
C862        C  0.27272874  0.50983769  0.24916306     0.02900
C863        C  0.21634873  0.51340148  0.32105127     0.37500
C864        C  0.25821805  0.50555709  0.19240845     0.37500
C865        C  0.30933686  0.50772029  0.24154636     0.35900
C866        C  0.16527169  0.51529205  0.27202247     0.35900
N867        N  0.33858813  0.50604970  0.23559143    -0.38900
N868        N  0.13607594  0.51696434  0.27819660    -0.38900
N869        N  0.26693882  0.50284699  0.16649072    -0.38300
N870        N  0.20771546  0.51391785  0.34710514    -0.38300
C871        C  0.52957904  0.60060389  0.11773452    -0.05000
C872        C  0.54003923  0.59923640  0.14994441    -0.02100
C873        C  0.56254590  0.57272349  0.16084428     0.02900
C874        C  0.57709558  0.54909766  0.13951012    -0.05000
C875        C  0.57112993  0.55407211  0.10685714    -0.02100
C876        C  0.54638346  0.57857122  0.09615642     0.02900
C877        C  0.52679737  0.62408221  0.17245325     0.37500
C878        C  0.59078885  0.53445969  0.08397856     0.37500
C879        C  0.53862028  0.58143446  0.06282097     0.35900
C880        C  0.57103564  0.56984052  0.19401115     0.35900
N881        N  0.53241532  0.58371344  0.03622069    -0.38900
N882        N  0.57802569  0.56764911  0.22045335    -0.38900
N883        N  0.60670304  0.51992043  0.06510592    -0.38300
N884        N  0.51664996  0.64386566  0.19065519    -0.38300
C885        C  0.39305378  0.61369498  0.00385435    -0.05000
C886        C  0.38719403  0.57792681  0.99839431    -0.02100
C887        C  0.37509238  0.56639940  0.46871119     0.02900
C888        C  0.36816677  0.59045946  0.44456338    -0.05000
C889        C  0.37123419  0.62594474  0.45086830    -0.02100
C890        C  0.38472275  0.63761857  0.47955077     0.02900
C891        C  0.39202206  0.55292857  0.02346640     0.37500
C892        C  0.35806569  0.65101365  0.42856204     0.37500
C893        C  0.38908265  0.67472494  0.48346603     0.35900
C894        C  0.36965547  0.52985583  0.46311848     0.35900
N895        N  0.39174582  0.70432543  0.98621709    -0.38900
N896        N  0.36508647  0.50072403  0.45872385    -0.38900
N897        N  0.34692284  0.67171398  0.41180355    -0.38300
N898        N  0.39563558  0.53294479  0.04348495    -0.38300
C899        C  0.42804329  0.62979839  0.19696882    -0.05000
C900        C  0.43859836  0.59783801  0.21041827    -0.02100
C901        C  0.42447450  0.58681318  0.23934134     0.02900
C902        C  0.40012813  0.60778757  0.25500765    -0.05000
C903        C  0.39116376  0.64058675  0.24212803    -0.02100
C904        C  0.40353948  0.65045324  0.21261911     0.02900
C905        C  0.46139898  0.57464400  0.19339296     0.37500
C906        C  0.36777354  0.66432257  0.25806191     0.37500
C907        C  0.38600671  0.67848637  0.19615126     0.35900
C908        C  0.43298246  0.55284036  0.25159937     0.35900
N909        N  0.37069626  0.69983661  0.18302445    -0.38900
N910        N  0.43959644  0.52567632  0.26130539    -0.38900
N911        N  0.34889917  0.68377918  0.26963545    -0.38300
N912        N  0.47895347  0.55538508  0.17998999    -0.38300
C913        C  0.31692059  0.61867195  0.11573909    -0.05000
C914        C  0.28820761  0.62238938  0.09506035    -0.02100
C915        C  0.25436026  0.61307279  0.10489027     0.02900
C916        C  0.24860844  0.60098201  0.13586525    -0.05000
C917        C  0.27723888  0.59878391  0.15683213    -0.02100
C918        C  0.31124577  0.60529815  0.14616149     0.02900
C919        C  0.29371966  0.63443092  0.06311051     0.37500
C920        C  0.27200526  0.59113043  0.18991112     0.37500
C921        C  0.34026765  0.59682416  0.16645101     0.35900
C922        C  0.22518746  0.61854068  0.08381273     0.35900
N923        N  0.36274052  0.58830902  0.18279443    -0.38900
N924        N  0.20203919  0.62369545  0.06701083    -0.38900
N925        N  0.26812278  0.58628098  0.21654206    -0.38300
N926        N  0.29830314  0.64387603  0.03761179    -0.38300
C927        C  0.39018126  0.77046834  0.13693266    -0.05000
C928        C  0.39807695  0.78006624  0.16830502    -0.02100
C929        C  0.38219115  0.80944857  0.18184136     0.02900
C930        C  0.36250630  0.83227811  0.16312075    -0.05000
C931        C  0.35298240  0.82206751  0.13243992    -0.02100
C932        C  0.36650850  0.79122317  0.11943605     0.02900
C933        C  0.42230520  0.75983400  0.18691504     0.37500
C934        C  0.32991813  0.84386031  0.11397739     0.37500
C935        C  0.35758814  0.78216915  0.08726821     0.35900
C936        C  0.38210112  0.81372795  0.21567625     0.35900
N937        N  0.35040149  0.77503916  0.06160633    -0.38900
N938        N  0.38086268  0.81622343  0.24278740    -0.38900
N939        N  0.31143522  0.86130016  0.09942307    -0.38300
N940        N  0.44186950  0.74394527  0.20178565    -0.38300
C941        C  0.57305579  0.96999628  0.37318214    -0.05000
C942        C  0.55515764  0.94979113  0.35095740    -0.02100
C943        C  0.53107537  0.92449007  0.36090958     0.02900
C944        C  0.52323003  0.92023858  0.39330057    -0.05000
C945        C  0.54323818  0.93837436  0.41561383    -0.02100
C946        C  0.56935162  0.96169147  0.40562134     0.02900
C947        C  0.56342351  0.95338193  0.31786429     0.37500
C948        C  0.53644258  0.93350290  0.44885303     0.37500
C949        C  0.59231017  0.97684944  0.42891467     0.35900
C950        C  0.51523311  0.90255798  0.33738817     0.35900
N951        N  0.61085229  0.98831095  0.44768371    -0.38900
N952        N  0.50435541  0.88525288  0.31750178    -0.38900
N953        N  0.53081649  0.92968569  0.47536167    -0.38300
N954        N  0.57059748  0.95556922  0.29152673    -0.38300
C955        C  0.38740433  0.75754580  0.36587078    -0.05000
C956        C  0.41032118  0.73604516  0.34889207    -0.02100
C957        C  0.39878271  0.70409700  0.33699983     0.02900
C958        C  0.36445185  0.69249428  0.34289411    -0.05000
C959        C  0.34029334  0.71608265  0.35584100    -0.02100
C960        C  0.35183793  0.74828377  0.36763572     0.02900
C961        C  0.44660097  0.74536259  0.34538067     0.37500
C962        C  0.30410174  0.70644269  0.35939995     0.37500
C963        C  0.32694841  0.77151399  0.38204452     0.35900
C964        C  0.42272721  0.68318813  0.31872556     0.35900
N965        N  0.30671093  0.78967401  0.39347891    -0.38900
N966        N  0.44192255  0.66667711  0.30417848    -0.38900
N967        N  0.27530688  0.69868448  0.36248382    -0.38300
N968        N  0.47557492  0.75257318  0.34263598    -0.38300
C969        C  0.47471838  0.77853249  0.47565467    -0.05000
C970        C  0.48373490  0.79226360  0.50535462    -0.02100
C971        C  0.48278674  0.77101099  0.03249236     0.02900
C972        C  0.47523416  0.73553969  0.02950010    -0.05000
C973        C  0.47452449  0.72077507  0.99910523    -0.02100
C974        C  0.47352303  0.74231071  0.47212258     0.02900
C975        C  0.49168334  0.82871781  0.50800093     0.37500
C976        C  0.47337208  0.68354229  0.99585688     0.37500
C977        C  0.46877099  0.72736647  0.44115591     0.35900
C978        C  0.48649854  0.78612899  0.06350444     0.35900
N979        N  0.46522373  0.71522487  0.41647056    -0.38900
N980        N  0.48933719  0.79821250  0.08828816    -0.38900
N981        N  0.47289306  0.65379272  0.99333218    -0.38300
N982        N  0.49825325  0.85779176  0.50985946    -0.38300
C983        C  0.24380938  0.91381362  0.37856182    -0.05000
C984        C  0.26448932  0.89078114  0.36070092    -0.02100
C985        C  0.29749418  0.88062513  0.37176025     0.02900
C986        C  0.30953847  0.89214188  0.40132975    -0.05000
C987        C  0.28898856  0.91504838  0.41923192    -0.02100
C988        C  0.25662858  0.92653493  0.40756223     0.02900
C989        C  0.25271895  0.87869541  0.33012768     0.37500
C990        C  0.30044094  0.92592825  0.45022802     0.37500
C991        C  0.23638545  0.95097271  0.42582137     0.35900
C992        C  0.31999668  0.85999397  0.35181543     0.35900
N993        N  0.22038421  0.97056668  0.44038085    -0.38900
N994        N  0.33816080  0.84384871  0.33590417    -0.38900
N995        N  0.30883438  0.93452802  0.47519007    -0.38300
N996        N  0.24342041  0.86894297  0.30576973    -0.38300
C997        C  0.42274473  0.90418898  0.31658432    -0.05000
C998        C  0.41637035  0.93987554  0.31131199    -0.02100
C999        C  0.40732908  0.95136890  0.28100103     0.02900
C1000       C  0.40611737  0.92755722  0.25631726    -0.05000
C1001       C  0.42084671  0.89473359  0.26013653    -0.02100
C1002       C  0.42693031  0.88192555  0.29047520     0.02900
C1003       C  0.41996539  0.96480858  0.33660664     0.37500
C1004       C  0.43279580  0.87599665  0.23273677     0.37500
C1005       C  0.43603172  0.84581746  0.29440323     0.35900
C1006       C  0.40197972  0.98766914  0.27449188     0.35900
N1007       N  0.44323155  0.81696561  0.29732900    -0.38900
N1008       N  0.39920059  0.01679752  0.26897709    -0.38900
N1009       N  0.44374154  0.86177152  0.21096492    -0.38300
N1010       N  0.42315323  0.98468420  0.35674525    -0.38300
C1011       C  0.39705386  0.90814355  0.00849603    -0.05000
C1012       C  0.39973486  0.88567266  0.03435670    -0.02100
C1013       C  0.39268079  0.89759791  0.06468510     0.02900
C1014       C  0.37549789  0.92994998  0.06922734    -0.05000
C1015       C  0.37154316  0.95216788  0.04283316    -0.02100
C1016       C  0.38412231  0.94192308  0.01296372     0.02900
C1017       C  0.40836036  0.84942693  0.03018917     0.37500
C1018       C  0.35663606  0.98635363  0.04641358     0.37500
C1019       C  0.38218897  0.96555649  0.48652190     0.35900
C1020       C  0.40595698  0.87672120  0.09054737     0.35900
N1021       N  0.38057440  0.98435535  0.46538090    -0.38900
N1022       N  0.41804181  0.86027673  0.11055145    -0.38900
N1023       N  0.34503922  0.01376115  0.04923292    -0.38300
N1024       N  0.41364928  0.82013685  0.02797966    -0.38300
O1025       O  0.38673933  0.86746786  0.96896251    -0.81400
C1026       C  0.42571602  0.89099018  0.84905158     0.97900
O1027       O  0.40729510  0.90473249  0.87003175    -0.70600
O1028       O  0.36640176  0.90533670  0.91867514    -0.74200
Al1029     Al  0.41591298  0.90492911  0.91323693     1.49000
C1030       C  0.34467955  0.88207338  0.91218340     0.93200
O1031       O  0.39007657  0.79438615  0.91051598    -0.80400
O1032       O  0.46821144  0.80611237  0.92478866    -0.73900
Al1033     Al  0.39221256  0.83395169  0.93674935     1.90100
O1034       O  0.42441422  0.80670197  0.87177948    -0.73000
O1035       O  0.49194195  0.86810196  0.90550937    -0.72900
O1036       O  0.44704480  0.86706243  0.85550556    -0.78500
O1037       O  0.46339858  0.91683609  0.90559389    -0.76700
O1038       O  0.42159969  0.85902516  0.91399637    -1.12900
O1039       O  0.42327387  0.90920108  0.95740947    -0.72000
C1040       C  0.40319780  0.89434729  0.97664862     0.98700
C1041       C  0.40109403  0.78810837  0.88339442     0.95100
Al1042     Al  0.45495899  0.83861209  0.89152037     1.55600
O1043       O  0.35310594  0.85067340  0.91400524    -0.76700
C1044       C  0.49155329  0.90056761  0.90291987     0.99200
C1045       C  0.45663418  0.80127286  0.95244123     0.94100
O1046       O  0.42833040  0.81465000  0.96111429    -0.82000
O1047       O  0.39343224  0.65688119  0.54267867    -0.81400
C1048       C  0.43693797  0.63901146  0.66429611     0.97900
O1049       O  0.43446490  0.61551768  0.64369759    -0.70600
O1050       O  0.37830480  0.61128083  0.60903279    -0.74200
Al1051     Al  0.42673525  0.61576841  0.59960217     1.49000
C1052       C  0.35220962  0.63074521  0.60606834     0.93200
O1053       O  0.38380793  0.71796899  0.60893963    -0.80400
O1054       O  0.47776451  0.70383332  0.57843885    -0.73900
Al1055     Al  0.39312149  0.68523378  0.57748409     1.90100
O1056       O  0.43566037  0.72961098  0.62489174    -0.73000
O1057       O  0.49516653  0.65194837  0.61928680    -0.72900
O1058       O  0.44391255  0.67022189  0.65721889    -0.78500
O1059       O  0.47521077  0.61011680  0.59088087    -0.76700
O1060       O  0.42644225  0.66228519  0.59807843    -1.12900
O1061       O  0.41843894  0.60856840  0.55570743    -0.72000
C1062       C  0.40281948  0.62696324  0.53569465     0.98700
C1063       C  0.40412641  0.73767066  0.62302914     0.95100
Al1064     Al  0.45996358  0.68653911  0.61779088     1.55600
O1065       O  0.35541660  0.66060108  0.59485178    -0.76700
C1066       C  0.49902914  0.62241180  0.60782561     0.99200
C1067       C  0.45936641  0.71645588  0.55623445     0.94100
O1068       O  0.42645690  0.71361094  0.55597674    -0.82000
O1069       O  0.30101320  0.56093265  0.79200421    -0.81400
C1070       C  0.36136824  0.57971134  0.91165072     0.97900
O1071       O  0.33948435  0.55650285  0.90509969    -0.70600
O1072       O  0.28047849  0.57380828  0.87918961    -0.74200
Al1073     Al  0.31693133  0.54393832  0.86625587     1.49000
C1074       C  0.26243129  0.59367338  0.86242561     0.93200
O1075       O  0.32550608  0.64440740  0.83331289    -0.80400
O1076       O  0.39530008  0.57777970  0.80461268    -0.73900
Al1077     Al  0.31451807  0.60081877  0.81431647     1.90100
O1078       O  0.38043764  0.63352448  0.84115355    -0.73000
O1079       O  0.39712274  0.53963116  0.85705260    -0.72900
O1080       O  0.37809361  0.59490313  0.89040543    -0.78500
O1081       O  0.35028996  0.50812812  0.85883310    -0.76700
O1082       O  0.33840688  0.57629866  0.84275936    -1.12900
O1083       O  0.28941905  0.52588375  0.83139112    -0.72000
C1084       C  0.28658903  0.53411631  0.80252994     0.98700
C1085       C  0.35598138  0.65497854  0.83870388     0.95100
Al1086     Al  0.38363192  0.58524403  0.84778342     1.55600
O1087       O  0.27264298  0.60252083  0.83578303    -0.76700
C1088       C  0.38273603  0.51105391  0.86196550     0.99200
C1089       C  0.38117592  0.59545758  0.78307109     0.94100
O1090       O  0.35048313  0.60555996  0.78587368    -0.82000
O1091       O  0.17288629  0.55942924  0.71796385    -0.81400
C1092       C  0.11242569  0.56933983  0.59697178     0.97900
O1093       O  0.13631701  0.54843398  0.60472339    -0.70600
O1094       O  0.19509130  0.56998416  0.62974557    -0.74200
Al1095     Al  0.15984664  0.53870236  0.64386041     1.49000
C1096       C  0.21334905  0.58978499  0.64641836     0.93200
O1097       O  0.14681187  0.63858022  0.67114404    -0.80400
O1098       O  0.07943803  0.57058410  0.70417668    -0.73900
Al1099     Al  0.15886655  0.59753659  0.69345168     1.90100
O1100       O  0.09186397  0.62574827  0.66540578    -0.73000
O1101       O  0.07932390  0.52987056  0.65162937    -0.72900
O1102       O  0.09602169  0.58585895  0.61754853    -0.78500
O1103       O  0.12842198  0.50138080  0.65243535    -0.76700
O1104       O  0.13647548  0.57058409  0.66597516    -1.12900
O1105       O  0.18783363  0.52364893  0.67992017    -0.72000
C1106       C  0.18897223  0.53284080  0.70871477     0.98700
C1107       C  0.11601199  0.64766935  0.66480977     0.95100
Al1108     Al  0.09084401  0.57705515  0.66039702     1.55600
O1109       O  0.20262754  0.59890839  0.67299411    -0.76700
C1110       C  0.09588418  0.50195591  0.64867590     0.99200
C1111       C  0.09132578  0.59104723  0.72487355     0.94100
O1112       O  0.12114297  0.60370310  0.72144441    -0.82000
O1113       O  0.07769863  0.86384570  0.53795562    -0.81400
C1114       C  0.04339606  0.87687196  0.66486900     0.97900
O1115       O  0.04503897  0.90130510  0.64522153    -0.70600
O1116       O  0.10133617  0.90438053  0.61301808    -0.74200
Al1117     Al  0.05363380  0.90388767  0.60156610     1.49000
C1118       C  0.12669978  0.88636808  0.60435777     0.93200
O1119       O  0.09439210  0.80397079  0.60607981    -0.80400
O1120       O  0.99839174  0.81862307  0.57576213    -0.73900
Al1121     Al  0.08289563  0.83537620  0.57342057     1.90100
O1122       O  0.04212568  0.79088642  0.61913249    -0.73000
O1123       O  0.98416920  0.86943526  0.61900458    -0.72900
O1124       O  0.03605211  0.84639690  0.65593909    -0.78500
O1125       O  0.00505061  0.91237587  0.59222682    -0.76700
O1126       O  0.05148567  0.85804611  0.59631815    -1.12900
O1127       O  0.06487345  0.91414444  0.55883122    -0.72000
C1128       C  0.07500248  0.89615026  0.53580859     0.98700
C1129       C  0.07388180  0.78371711  0.61942864     0.95100
Al1130     Al  0.01807432  0.83368233  0.61547936     1.55600
O1131       O  0.12239324  0.86028225  0.58730424    -0.76700
C1132       C  0.98094360  0.89964562  0.60870860     0.99200
C1133       C  0.01625751  0.80333164  0.55472403     0.94100
O1134       O  0.04911296  0.80541894  0.55449116    -0.82000
O1135       O  0.07058899  0.64402309  0.97356338    -0.81400
C1136       C  0.03430724  0.63273174  0.84467674     0.97900
O1137       O  0.03916409  0.60849836  0.86398151    -0.70600
O1138       O  0.09923141  0.61320443  0.89173693    -0.74200
Al1139     Al  0.05375158  0.60725656  0.90684658     1.49000
C1140       C  0.12394146  0.62951773  0.90426371     0.93200
O1141       O  0.08845524  0.70764817  0.90823553    -0.80400
O1142       O  0.99323488  0.69079817  0.93643731    -0.73900
Al1143     Al  0.07741424  0.67458302  0.93935323     1.90100
O1144       O  0.03630013  0.71802993  0.89101878    -0.73000
O1145       O  0.98060752  0.63642861  0.89590079    -0.72900
O1146       O  0.02744730  0.66285404  0.85461977    -0.78500
O1147       O  0.00855908  0.59605656  0.92093804    -0.76700
O1148       O  0.04775077  0.65227090  0.91435574    -1.12900
O1149       O  0.07066606  0.59516644  0.94750683    -0.72000
C1150       C  0.07376641  0.61164240  0.97281600     0.98700
C1151       C  0.06780260  0.72668630  0.89311269     0.95100
Al1152     Al  0.01229137  0.67500543  0.89631645     1.55600
O1153       O  0.11807409  0.65070431  0.92607685    -0.76700
C1154       C  0.98172606  0.60586403  0.90636317     0.99200
C1155       C  0.01089110  0.70675211  0.95723242     0.94100
O1156       O  0.04351480  0.70393950  0.95796703    -0.82000
O1157       O  0.30427934  0.96314437  0.72090127    -0.81400
C1158       C  0.36461752  0.94051115  0.60173497     0.97900
O1159       O  0.34388662  0.96546178  0.60728091    -0.70600
O1160       O  0.28449601  0.94476755  0.63159661    -0.74200
Al1161     Al  0.31800746  0.97726544  0.64575400     1.49000
C1162       C  0.26417813  0.92760459  0.64861713     0.93200
O1163       O  0.32618707  0.87968365  0.67833334    -0.80400
O1164       O  0.39553269  0.95105229  0.70615106    -0.73900
Al1165     Al  0.31647133  0.92269753  0.69862090     1.90100
O1166       O  0.38217685  0.88891116  0.67531820    -0.73000
O1167       O  0.39718025  0.98340808  0.65136018    -0.72900
O1168       O  0.37760348  0.92401396  0.62416184    -0.78500
O1169       O  0.34975795  0.01419564  0.65571429    -0.76700
O1170       O  0.33960608  0.94644757  0.66983558    -1.12900
O1171       O  0.28694749  0.99361054  0.67995014    -0.72000
C1172       C  0.28525350  0.98654816  0.70934448     0.98700
C1173       C  0.35649395  0.86857242  0.67340412     0.95100
Al1174     Al  0.38443817  0.93785485  0.66479072     1.55600
O1175       O  0.27241878  0.92208134  0.67697260    -0.76700
C1176       C  0.38195018  0.01226002  0.64997975     0.99200
C1177       C  0.38420875  0.93358290  0.72876857     0.94100
O1178       O  0.35534576  0.91798588  0.72701469    -0.82000
O1179       O  0.18384510  0.94627552  0.80329545    -0.81400
C1180       C  0.11505054  0.95183960  0.91543275     0.97900
O1181       O  0.14505464  0.95975636  0.90550966    -0.70600
O1182       O  0.19998291  0.95573354  0.86758485    -0.74200
Al1183     Al  0.15503391  0.97708731  0.86426292     1.49000
C1184       C  0.20914012  0.92451896  0.86660549     0.93200
O1185       O  0.13310210  0.87113027  0.83737417    -0.80400
O1186       O  0.07602361  0.92083105  0.81209713    -0.73900
Al1187     Al  0.15613826  0.91152541  0.82300942     1.90100
O1188       O  0.09151229  0.88995661  0.86786538    -0.73000
O1189       O  0.07570715  0.98158280  0.84026726    -0.72900
O1190       O  0.08959788  0.94907055  0.89674987    -0.78500
O1191       O  0.11562272  0.00799132  0.86715659    -0.76700
O1192       O  0.13262570  0.94143753  0.84659841    -1.12900
O1193       O  0.16756559  0.99630582  0.82365072    -0.72000
C1194       C  0.18365722  0.97898054  0.80272180     0.98700
C1195       C  0.10892281  0.86549605  0.85650209     0.95100
Al1196     Al  0.08727580  0.93597068  0.85347440     1.55600
O1197       O  0.18933762  0.90243937  0.85461734    -0.76700
C1198       C  0.08510247  0.00735505  0.85621295     0.99200
C1199       C  0.09371783  0.91456637  0.78791577     0.94100
O1200       O  0.12628194  0.91541313  0.78837905    -0.82000
O1201       O  0.62284241  0.41210746  0.72205991    -0.81400
C1202       C  0.60665930  0.44644227  0.59933244     0.97900
O1203       O  0.58689679  0.43794353  0.62138599    -0.70600
O1204       O  0.58776770  0.39431343  0.66720020    -0.74200
Al1205     Al  0.58835747  0.44382901  0.66486534     1.49000
C1206       C  0.61094383  0.37117265  0.66501630     0.93200
O1207       O  0.70101709  0.41453663  0.67003461    -0.80400
O1208       O  0.68601300  0.49377332  0.67886935    -0.73900
Al1209     Al  0.65820946  0.41794490  0.69185193     1.90100
O1210       O  0.69479837  0.44677432  0.62916307    -0.73000
O1211       O  0.62812783  0.51508419  0.64697081    -0.72900
O1212       O  0.63497090  0.46241137  0.60435218    -0.78500
O1213       O  0.57863042  0.49195227  0.66009003    -0.76700
O1214       O  0.63505818  0.44674578  0.66624926    -1.12900
O1215       O  0.58228997  0.44866972  0.70942485    -0.72000
C1216       C  0.59455014  0.42660908  0.72831138     0.98700
C1217       C  0.71259668  0.42569395  0.64453620     0.95100
Al1218     Al  0.65861645  0.47677040  0.64237732     1.55600
O1219       O  0.64251530  0.37868443  0.66956203    -0.76700
C1220       C  0.59588046  0.51742969  0.65055764     0.99200
C1221       C  0.68919260  0.48269910  0.70723403     0.94100
O1222       O  0.67540970  0.45463902  0.71584481    -0.82000
O1223       O  0.83764952  0.41362020  0.78372555    -0.81400
C1224       C  0.86343640  0.44183943  0.91124135     0.97900
O1225       O  0.88548711  0.44018418  0.88953641    -0.70600
O1226       O  0.88088999  0.38646997  0.85433533    -0.74200
Al1227     Al  0.88261524  0.43368383  0.84556222     1.49000
C1228       C  0.86017670  0.36276086  0.84747800     0.93200
O1229       O  0.77788383  0.39972173  0.85245603    -0.80400
O1230       O  0.79713150  0.49455721  0.82919785    -0.73900
Al1231     Al  0.81003981  0.41011776  0.82024986     1.90100
O1232       O  0.77273759  0.44979777  0.87393589    -0.73000
O1233       O  0.85411303  0.50363673  0.86787098    -0.72900
O1234       O  0.83244125  0.45146329  0.90552530    -0.78500
O1235       O  0.89293108  0.48077186  0.83730087    -0.76700
O1236       O  0.83629949  0.43856845  0.84379463    -1.12900
O1237       O  0.88915670  0.42497995  0.80283992    -0.72000
C1238       C  0.86992717  0.41642747  0.78035704     0.98700
C1239       C  0.76190997  0.41950513  0.87064401     0.95100
Al1240     Al  0.81595116  0.47196642  0.86669022     1.55600
O1241       O  0.83242654  0.36871362  0.83285591    -0.76700
C1242       C  0.88369192  0.50462934  0.85550357     0.99200
C1243       C  0.78131539  0.47933866  0.80666012     0.94100
O1244       O  0.78267870  0.44685298  0.80354779    -0.82000
O1245       O  0.92965026  0.30195652  0.55613219    -0.81400
C1246       C  0.93491741  0.37515498  0.66434909     0.97900
O1247       O  0.94243279  0.34441973  0.65619857    -0.70600
O1248       O  0.93795013  0.28770110  0.62003239    -0.74200
Al1249     Al  0.96103699  0.33128154  0.61640648     1.49000
C1250       C  0.90629266  0.28010084  0.62000482     0.93200
O1251       O  0.85603914  0.35766788  0.58973916    -0.80400
O1252       O  0.91476818  0.41004110  0.55718962    -0.73900
Al1253     Al  0.89527963  0.33204835  0.57527393     1.90100
O1254       O  0.87827359  0.40341695  0.61192731    -0.73000
O1255       O  0.97386265  0.40812935  0.59056122    -0.72900
O1256       O  0.93502894  0.39979481  0.64467113    -0.78500
O1257       O  0.99462462  0.36734412  0.62002834    -0.76700
O1258       O  0.92727831  0.35523011  0.59690028    -1.12900
O1259       O  0.98064608  0.31636651  0.57690531    -0.72000
C1260       C  0.96272921  0.30036457  0.55624918     0.98700
C1261       C  0.85231804  0.38529969  0.60500346     0.95100
Al1262     Al  0.92580984  0.40124105  0.60056146     1.55600
O1263       O  0.88508543  0.30110717  0.60843790    -0.76700
C1264       C  0.99786358  0.39675772  0.60803008     0.99200
C1265       C  0.90367518  0.39106223  0.53513657     0.94100
O1266       O  0.89856261  0.35944108  0.53950751    -0.82000
O1267       O  0.93030450  0.21063306  0.95904690    -0.81400
C1268       C  0.92262641  0.12938299  0.85382098     0.97900
O1269       O  0.93150018  0.16051308  0.85923658    -0.70600
O1270       O  0.93174358  0.22000702  0.89215523    -0.74200
Al1271     Al  0.95388453  0.17605863  0.89753666     1.49000
C1272       C  0.90075609  0.22943119  0.89573988     0.93200
O1273       O  0.85120208  0.15915575  0.93548100    -0.80400
O1274       O  0.90578346  0.10399514  0.96187830    -0.73900
Al1275     Al  0.89336720  0.18203030  0.94494341     1.90100
O1276       O  0.86792226  0.11344868  0.90958338    -0.73000
O1277       O  0.96323550  0.09985171  0.92759893    -0.72900
O1278       O  0.92249786  0.10710784  0.87535889    -0.78500
O1279       O  0.98488061  0.13733400  0.89509927    -0.76700
O1280       O  0.92097339  0.15592411  0.92093235    -1.12900
O1281       O  0.97802540  0.19328475  0.93474456    -0.72000
C1282       C  0.96300862  0.21037305  0.95650417     0.98700
C1283       C  0.84437221  0.13343392  0.91870200     0.95100
Al1284     Al  0.91547506  0.11025375  0.91909492     1.55600
O1285       O  0.88067387  0.21153499  0.91193036    -0.76700
C1286       C  0.98647158  0.10815594  0.90810924     0.99200
C1287       C  0.89996904  0.12367746  0.98470145     0.94100
O1288       O  0.90028455  0.15593408  0.98171455    -0.82000
O1289       O  0.62806705  0.09473115  0.78895762    -0.81400
C1290       C  0.61259893  0.06726969  0.91674509     0.97900
O1291       O  0.58833315  0.06673023  0.89665269    -0.70600
O1292       O  0.58434428  0.12082975  0.86052804    -0.74200
Al1293     Al  0.58718397  0.07244338  0.85236062     1.49000
C1294       C  0.60210468  0.14599905  0.85101726     0.93200
O1295       O  0.68798502  0.11564163  0.85685423    -0.80400
O1296       O  0.67509765  0.01838935  0.83179555    -0.73900
Al1297     Al  0.65622810  0.10181348  0.82467041     1.90100
O1298       O  0.70095230  0.06458596  0.87383641    -0.73000
O1299       O  0.62346713  0.00557364  0.87465350    -0.72900
O1300       O  0.64376044  0.06016641  0.90914814    -0.78500
O1301       O  0.58093748  0.02369596  0.84532496    -0.76700
O1302       O  0.63363194  0.07145835  0.84865651    -1.12900
O1303       O  0.57769665  0.08008229  0.80897855    -0.72000
C1304       C  0.59584907  0.09021209  0.78618576     0.98700
C1305       C  0.70824410  0.09600703  0.87160642     0.95100
Al1306     Al  0.65841907  0.03996475  0.87020088     1.55600
O1307       O  0.62986016  0.14084480  0.83633232    -0.76700
C1308       C  0.59387231  0.00086235  0.86309035     0.99200
C1309       C  0.68961574  0.03519528  0.80960621     0.94100
O1310       O  0.68695613  0.06776854  0.80777905    -0.82000
O1311       O  0.84208805  0.09618968  0.72619739    -0.81400
C1312       C  0.85576058  0.06392480  0.60141047     0.97900
O1313       O  0.88018349  0.06482879  0.62141581    -0.70600
O1314       O  0.88539249  0.11819699  0.65800891    -0.74200
Al1315     Al  0.88229802  0.06962974  0.66551733     1.49000
C1316       C  0.86553832  0.14333144  0.66338092     0.93200
O1317       O  0.78033753  0.11104858  0.65991169    -0.80400
O1318       O  0.79581492  0.01527919  0.68745664    -0.73900
Al1319     Al  0.81293267  0.09983058  0.69149124     1.90100
O1320       O  0.76743021  0.05957821  0.64502069    -0.73000
O1321       O  0.84697374  0.00205318  0.64328321    -0.72900
O1322       O  0.82486708  0.05573461  0.60899615    -0.78500
O1323       O  0.88944607  0.02108935  0.67175952    -0.76700
O1324       O  0.83582794  0.06855053  0.66885995    -1.12900
O1325       O  0.89135495  0.07552537  0.70915663    -0.72000
C1326       C  0.87308129  0.08762550  0.73104930     0.98700
C1327       C  0.75942264  0.09090566  0.64705888     0.95100
Al1328     Al  0.81124985  0.03607666  0.64832006     1.55600
O1329       O  0.83689251  0.13881898  0.67660269    -0.76700
C1330       C  0.87714625  0.99818384  0.65391717     0.99200
C1331       C  0.78117050  0.03267869  0.70927125     0.94100
O1332       O  0.78408506  0.06534483  0.71071312    -0.82000
O1333       O  0.53881219  0.31205825  0.96221289    -0.81400
C1334       C  0.54110617  0.38435402  0.84842552     0.97900
O1335       O  0.51747266  0.36312879  0.85634600    -0.70600
O1336       O  0.53151777  0.30048115  0.87725470    -0.74200
Al1337     Al  0.50774685  0.33875005  0.89532342     1.49000
C1338       C  0.55717964  0.28303013  0.88632053     0.93200
O1339       O  0.61555580  0.34552150  0.91601294    -0.80400
O1340       O  0.54931205  0.40962794  0.95617469    -0.73900
Al1341     Al  0.57437648  0.33068993  0.93752717     1.90100
O1342       O  0.60320512  0.39987154  0.91676013    -0.73000
O1343       O  0.50928035  0.41761336  0.90503645    -0.72900
O1344       O  0.56080747  0.39849627  0.86844079    -0.78500
O1345       O  0.47521609  0.37350459  0.90870985    -0.76700
O1346       O  0.54523681  0.35682954  0.91495930    -1.12900
O1347       O  0.49286871  0.31129293  0.93126541    -0.72000
C1348       C  0.50780257  0.30360774  0.95702857     0.98700
C1349       C  0.62552016  0.37644675  0.91469054     0.95100
Al1350     Al  0.55449243  0.40204221  0.91193175     1.55600
O1351       O  0.57439216  0.29230496  0.91003462    -0.76700
C1352       C  0.47926646  0.40552742  0.90544620     0.99200
C1353       C  0.56768893  0.39361646  0.97628125     0.94100
O1354       O  0.58006717  0.36413189  0.96995163    -0.82000
O1355       O  0.53936253  0.19968429  0.54972914    -0.81400
C1356       C  0.53993996  0.13273689  0.66698111     0.97900
O1357       O  0.52154485  0.15874277  0.66011272    -0.70600
O1358       O  0.54271794  0.21705067  0.63781511    -0.74200
Al1359     Al  0.51260132  0.18257820  0.62148653     1.49000
C1360       C  0.56503351  0.23496225  0.62406585     0.93200
O1361       O  0.61466280  0.16885632  0.60024721    -0.80400
O1362       O  0.54896879  0.10638206  0.55754553    -0.73900
Al1363     Al  0.57542405  0.18339750  0.57583626     1.90100
O1364       O  0.60015877  0.11405553  0.60231110    -0.73000
O1365       O  0.50270832  0.10336437  0.60439237    -0.72900
O1366       O  0.55369706  0.11425328  0.64614367    -0.78500
O1367       O  0.47509115  0.15204239  0.61161838    -0.76700
O1368       O  0.54567893  0.15983915  0.59989352    -1.12900
O1369       O  0.49911302  0.21091983  0.58540821    -0.72000
C1370       C  0.51111610  0.21389445  0.55762296     0.98700
C1371       C  0.62261750  0.13757288  0.60523390     0.95100
Al1372     Al  0.55056178  0.11377836  0.60226983     1.55600
O1373       O  0.57612729  0.22538119  0.59794374    -0.76700
C1374       C  0.47495562  0.11962626  0.60933271     0.99200
C1375       C  0.57097539  0.11984584  0.53931038     0.94100
O1376       O  0.58358679  0.14859102  0.54630039    -0.82000
C1377       C  0.49080478  0.28259563  0.98197017    -0.05000
C1378       C  0.48625780  0.24684314  0.97722579    -0.02100
C1379       C  0.48857535  0.22373732  0.50296935     0.02900
C1380       C  0.49414946  0.23649889  0.53370774    -0.05000
C1381       C  0.49195514  0.27245671  0.53893743    -0.02100
C1382       C  0.49039258  0.29538482  0.51304711     0.02900
C1383       C  0.48171294  0.23341482  0.94576563     0.37500
C1384       C  0.49492754  0.28615205  0.57055780     0.37500
C1385       C  0.49061113  0.33235217  0.51825058     0.35900
C1386       C  0.48760304  0.18678775  0.99767821     0.35900
N1387       N  0.49047858  0.36183823  0.52254996    -0.38900
N1388       N  0.48699832  0.15725040  0.99358216    -0.38900
N1389       N  0.49716702  0.29752592  0.59565078    -0.38300
N1390       N  0.47737358  0.22190331  0.92097673    -0.38300
C1391       C  0.72507087  0.10400405  0.63520336    -0.05000
C1392       C  0.70878560  0.13293963  0.64962177    -0.02100
C1393       C  0.67600208  0.14470240  0.63902377     0.02900
C1394       C  0.65859071  0.12742796  0.61439473    -0.05000
C1395       C  0.67462866  0.09856330  0.60001089    -0.02100
C1396       C  0.70769943  0.08716185  0.61006384     0.02900
C1397       C  0.72453456  0.14982666  0.67663032     0.37500
C1398       C  0.65717862  0.08026809  0.57465984     0.37500
C1399       C  0.72377404  0.05819369  0.59399152     0.35900
C1400       C  0.65928135  0.17340894  0.65490271     0.35900
N1401       N  0.73650329  0.03511771  0.58109599    -0.38900
N1402       N  0.64607069  0.19626750  0.66769702    -0.38900
N1403       N  0.64341092  0.06523152  0.55467414    -0.38300
N1404       N  0.73684777  0.16337560  0.69822540    -0.38300
C1405       C  0.56761791  0.25055044  0.86993218    -0.05000
C1406       C  0.54323773  0.22529480  0.86072123    -0.02100
C1407       C  0.55444874  0.19122181  0.85395304     0.02900
C1408       C  0.59013704  0.18230459  0.85646261    -0.05000
C1409       C  0.61455008  0.20909091  0.86159577    -0.02100
C1410       C  0.60312374  0.24320933  0.86638671     0.02900
C1411       C  0.50711173  0.23473380  0.85645535     0.37500
C1412       C  0.65148470  0.20194287  0.86307425     0.37500
C1413       C  0.62716369  0.27161284  0.86292144     0.35900
C1414       C  0.52940222  0.16588240  0.84316346     0.35900
N1415       N  0.64563766  0.29447844  0.85806772    -0.38900
N1416       N  0.50947536  0.14574302  0.83429018    -0.38900
N1417       N  0.68100615  0.19658641  0.86453164    -0.38300
N1418       N  0.47838022  0.24242928  0.85244113    -0.38300
C1419       C  0.71046916  0.01829723  0.78432196    -0.05000
C1420       C  0.74597960  0.01068569  0.78937327    -0.02100
C1421       C  0.76924246  0.00909417  0.76350066     0.02900
C1422       C  0.75734446  0.01657508  0.73272566    -0.05000
C1423       C  0.72123605  0.01938207  0.72743660    -0.02100
C1424       C  0.69792556  0.01992068  0.75306328     0.02900
C1425       C  0.75909094  0.00805587  0.82130710     0.37500
C1426       C  0.70825443  0.02471764  0.69571242     0.37500
C1427       C  0.66114473  0.02500673  0.74735630     0.35900
C1428       C  0.80584042  0.00238713  0.76869343     0.35900
N1429       N  0.63181805  0.02890256  0.74255911    -0.38900
N1430       N  0.83506601  0.99698149  0.77283468    -0.38900
N1431       N  0.69764555  0.02892304  0.67047989    -0.38300
N1432       N  0.76943301  0.00616872  0.84686713    -0.38300
C1433       C  0.60369250  0.07777811  0.94937251    -0.05000
C1434       C  0.57287430  0.06587016  0.96391286    -0.02100
C1435       C  0.56439576  0.07645517  0.49470957     0.02900
C1436       C  0.58347430  0.10296321  0.50959309    -0.05000
C1437       C  0.61479875  0.11440321  0.99510574    -0.02100
C1438       C  0.62446651  0.10218591  0.96517026     0.02900
C1439       C  0.54849594  0.04417565  0.94690999     0.37500
C1440       C  0.63842302  0.13790675  0.01109135     0.37500
C1441       C  0.65394497  0.11774340  0.94935482     0.35900
C1442       C  0.53749198  0.05805939  0.51140771     0.35900
N1443       N  0.67704084  0.13088919  0.93684610    -0.38900
N1444       N  0.51713397  0.04182267  0.52473594    -0.38900
N1445       N  0.65743813  0.15650142  0.02368565    -0.38300
N1446       N  0.52827564  0.02766994  0.93347001    -0.38300
C1447       C  0.57865445  0.10129914  0.75664267    -0.05000
C1448       C  0.58356490  0.13565560  0.74605021    -0.02100
C1449       C  0.56715094  0.14725237  0.71838857     0.02900
C1450       C  0.54764305  0.12406191  0.70002364    -0.05000
C1451       C  0.54105885  0.09043225  0.71131111    -0.02100
C1452       C  0.55590617  0.07931749  0.73999416     0.02900
C1453       C  0.60551958  0.15948900  0.76342625     0.37500
C1454       C  0.51873293  0.06747600  0.69338963     0.37500
C1455       C  0.54856878  0.04501491  0.75169096     0.35900
C1456       C  0.57105539  0.18294895  0.70862643     0.35900
N1457       N  0.54228488  0.01761757  0.76082818    -0.38900
N1458       N  0.57402924  0.21165993  0.70162628    -0.38900
N1459       N  0.50078916  0.04937189  0.67903696    -0.38300
N1460       N  0.62314106  0.17892261  0.77659894    -0.38300
C1461       C  0.86456776  0.07498741  0.56914188    -0.05000
C1462       C  0.84354505  0.09964009  0.55365991    -0.02100
C1463       C  0.85633355  0.11725593  0.52722038     0.02900
C1464       C  0.88902630  0.10822098  0.01457918    -0.05000
C1465       C  0.90877582  0.08170170  0.52833773    -0.02100
C1466       C  0.89732240  0.06603322  0.55621971     0.02900
C1467       C  0.80908109  0.10777581  0.56512579     0.37500
C1468       C  0.94136212  0.07097512  0.51422850     0.37500
C1469       C  0.92020696  0.04163013  0.57189745     0.35900
C1470       C  0.83511934  0.14377996  0.01250522     0.35900
N1471       N  0.93939038  0.02292664  0.58419830    -0.38900
N1472       N  0.81808966  0.16508404  0.00113508    -0.38900
N1473       N  0.96726791  0.06222643  0.00299527    -0.38300
N1474       N  0.78129127  0.11423235  0.57351412    -0.38300
C1475       C  0.91115427  0.11755217  0.82238813    -0.05000
C1476       C  0.93348514  0.11890191  0.79622390    -0.02100
C1477       C  0.92287310  0.10417886  0.76725700     0.02900
C1478       C  0.88779505  0.09395115  0.76289856    -0.05000
C1479       C  0.86562126  0.09317235  0.78929291    -0.02100
C1480       C  0.87878530  0.10065313  0.81915161     0.02900
C1481       C  0.96799883  0.13335016  0.79963895     0.37500
C1482       C  0.82884667  0.08517304  0.78655683     0.37500
C1483       C  0.85977093  0.08693833  0.84568112     0.35900
C1484       C  0.94828785  0.09881400  0.74268955     0.35900
N1485       N  0.84348302  0.07282832  0.86452742    -0.38900
N1486       N  0.96879516  0.09383148  0.72336248    -0.38900
N1487       N  0.79926728  0.08028072  0.78507241    -0.38300
N1488       N  0.99547802  0.14502222  0.80239463    -0.38300
C1489       C  0.80820304  0.12688309  0.90880129    -0.05000
C1490       C  0.78811958  0.10232213  0.92484011    -0.02100
C1491       C  0.75464459  0.09383770  0.91378655     0.02900
C1492       C  0.74140698  0.10898864  0.88571818    -0.05000
C1493       C  0.76152155  0.13441179  0.87013922    -0.02100
C1494       C  0.79468092  0.14343436  0.88183582     0.02900
C1495       C  0.80242824  0.08494258  0.95226210     0.37500
C1496       C  0.74929583  0.15004892  0.84109568     0.37500
C1497       C  0.81579015  0.16849818  0.86520636     0.35900
C1498       C  0.73384933  0.06973051  0.93178828     0.35900
N1499       N  0.83276726  0.18833523  0.85194692    -0.38900
N1500       N  0.71734968  0.05063900  0.94638005    -0.38900
N1501       N  0.73975452  0.16265275  0.81791374    -0.38300
N1502       N  0.81390797  0.07081685  0.97394156    -0.38300
C1503       C  0.89441691  0.24604948  0.63274820    -0.05000
C1504       C  0.91444448  0.22850068  0.65582923    -0.02100
C1505       C  0.90564293  0.19464224  0.66509172     0.02900
C1506       C  0.87531471  0.17878464  0.65337340    -0.05000
C1507       C  0.85345138  0.19750360  0.63275644    -0.02100
C1508       C  0.86352066  0.23026783  0.62149375     0.02900
C1509       C  0.94316673  0.24575504  0.67150842     0.37500
C1510       C  0.82019777  0.18333562  0.62323833     0.37500
C1511       C  0.84213797  0.24694333  0.59770490     0.35900
C1512       C  0.92718578  0.17709644  0.68801697     0.35900
N1513       N  0.82495502  0.26000633  0.57870398    -0.38900
N1514       N  0.94520582  0.16438193  0.70648570    -0.38900
N1515       N  0.79319120  0.17289215  0.61607413    -0.38300
N1516       N  0.96576344  0.25960115  0.68432800    -0.38300
C1517       C  0.97931629  0.27727165  0.53244219    -0.05000
C1518       C  0.97943459  0.24124673  0.53763290    -0.02100
C1519       C  0.98155485  0.21813996  0.51191040     0.02900
C1520       C  0.98193274  0.23072751  0.98086963    -0.05000
C1521       C  0.98717609  0.26645697  0.97607599    -0.02100
C1522       C  0.98670801  0.28968319  0.50194528     0.02900
C1523       C  0.97470319  0.22794735  0.56921829     0.37500
C1524       C  0.98941424  0.27964053  0.94423149     0.37500
C1525       C  0.99141391  0.32631912  0.99717150     0.35900
C1526       C  0.98002591  0.18117884  0.51718220     0.35900
N1527       N  0.99498183  0.35568682  0.99334444    -0.38900
N1528       N  0.97904629  0.15166445  0.52132025    -0.38900
N1529       N  0.99109194  0.29003088  0.91874107    -0.38300
N1530       N  0.97096877  0.21716091  0.59437603    -0.38300
C1531       C  0.92283422  0.38308972  0.69665668    -0.05000
C1532       C  0.93125449  0.41525515  0.71078318    -0.02100
C1533       C  0.91334381  0.42659100  0.73772758     0.02900
C1534       C  0.88649899  0.40630932  0.75049035    -0.05000
C1535       C  0.87843575  0.37401568  0.73684432    -0.02100
C1536       C  0.89691424  0.36217855  0.71043831     0.02900
C1537       C  0.95689643  0.43793055  0.69682199     0.37500
C1538       C  0.85124128  0.35252827  0.75006764     0.37500
C1539       C  0.88713095  0.32944629  0.69643878     0.35900
C1540       C  0.92103549  0.46024568  0.75112957     0.35900
N1541       N  0.87863382  0.30324355  0.68591581    -0.38900
N1542       N  0.92701066  0.48711625  0.76174622    -0.38900
N1543       N  0.82963843  0.33528141  0.76048490    -0.38300
N1544       N  0.97674131  0.45680876  0.68590184    -0.38300
C1545       C  0.87491492  0.43056406  0.94319849    -0.05000
C1546       C  0.86594750  0.44921677  0.97057183    -0.02100
C1547       C  0.87750364  0.43778442  0.50054458     0.02900
C1548       C  0.89499937  0.40566816  0.50360817    -0.05000
C1549       C  0.90123257  0.38590200  0.97624019    -0.02100
C1550       C  0.89533039  0.40022700  0.94645948     0.02900
C1551       C  0.84598360  0.48084898  0.96786305     0.37500
C1552       C  0.91048135  0.34956631  0.97794457     0.37500
C1553       C  0.91197611  0.38349218  0.91993694     0.35900
C1554       C  0.86894529  0.45776250  0.52832717     0.35900
N1555       N  0.92736571  0.36952795  0.90034671    -0.38900
N1556       N  0.86212465  0.47363624  0.55054685    -0.38900
N1557       N  0.91582710  0.32016957  0.97856272    -0.38300
N1558       N  0.82994757  0.50603746  0.96567925    -0.38300
C1559       C  0.86820722  0.32759962  0.85825840    -0.05000
C1560       C  0.89053509  0.30624954  0.84069102    -0.02100
C1561       C  0.89982790  0.27338305  0.85218050     0.02900
C1562       C  0.88818066  0.26245662  0.88209342    -0.05000
C1563       C  0.86563103  0.28410147  0.89964149    -0.02100
C1564       C  0.85581123  0.31658390  0.88770739     0.02900
C1565       C  0.90536729  0.31868655  0.81151614     0.37500
C1566       C  0.85342951  0.27389320  0.93056984     0.37500
C1567       C  0.83461838  0.33966379  0.90660265     0.35900
C1568       C  0.92065069  0.25056917  0.83276118     0.35900
N1569       N  0.81805518  0.35820283  0.92177044    -0.38900
N1570       N  0.93705274  0.23229786  0.81718526    -0.38900
N1571       N  0.84347065  0.26585754  0.95516919    -0.38300
N1572       N  0.91799364  0.32839452  0.78850486    -0.38300
C1573       C  0.72951211  0.40758612  0.88730890    -0.05000
C1574       C  0.72048325  0.37200966  0.88894465    -0.02100
C1575       C  0.68863195  0.36165537  0.90244992     0.02900
C1576       C  0.66295285  0.38645457  0.90977047    -0.05000
C1577       C  0.67346630  0.42159787  0.91175524    -0.02100
C1578       C  0.70693557  0.43171586  0.90197101     0.02900
C1579       C  0.74370447  0.34548652  0.87717829     0.37500
C1580       C  0.65069100  0.44774383  0.92506714     0.37500
C1581       C  0.71776101  0.46705926  0.90781877     0.35900
C1582       C  0.68404375  0.32591226  0.91162674     0.35900
N1583       N  0.72619647  0.49518762  0.91293757    -0.38900
N1584       N  0.68104636  0.29756908  0.91982506    -0.38900
N1585       N  0.63267437  0.46868425  0.93559958    -0.38300
N1586       N  0.76180211  0.32412714  0.86749929    -0.38300
C1587       C  0.74826143  0.41542664  0.63376192    -0.05000
C1588       C  0.77575425  0.41316433  0.65597061    -0.02100
C1589       C  0.81009776  0.40759199  0.64573494     0.02900
C1590       C  0.81679671  0.39673930  0.61463987    -0.05000
C1591       C  0.78948466  0.39836279  0.59241564    -0.02100
C1592       C  0.75635891  0.41077505  0.60144084     0.02900
C1593       C  0.76959037  0.41860088  0.68932082     0.37500
C1594       C  0.79620045  0.39006200  0.55967718     0.37500
C1595       C  0.73234442  0.42150504  0.57703944     0.35900
C1596       C  0.83831246  0.41778205  0.66611905     0.35900
N1597       N  0.71452082  0.43125947  0.55691693    -0.38900
N1598       N  0.86006408  0.42875452  0.68195301    -0.38900
N1599       N  0.80162970  0.38332655  0.53361371    -0.38300
N1600       N  0.76501874  0.42235338  0.71601472    -0.38300
C1601       C  0.71166217  0.49989775  0.73152612    -0.05000
C1602       C  0.74764532  0.50370362  0.72612169    -0.02100
C1603       C  0.77149329  0.50162120  0.75169485     0.02900
C1604       C  0.75943092  0.49805586  0.78294699    -0.05000
C1605       C  0.72348641  0.50135910  0.78846155    -0.02100
C1606       C  0.69969267  0.50154265  0.76297059     0.02900
C1607       C  0.76030973  0.50603131  0.69413273     0.37500
C1608       C  0.71062153  0.50176237  0.82040078     0.37500
C1609       C  0.66270239  0.50018375  0.76917943     0.35900
C1610       C  0.80846625  0.50003066  0.74571018     0.35900
N1611       N  0.63325033  0.49873387  0.77423800    -0.38900
N1612       N  0.83799961  0.49865125  0.74098467    -0.38900
N1613       N  0.69952908  0.50267096  0.84562612    -0.38300
N1614       N  0.77032171  0.50804287  0.66855391    -0.38300
C1615       C  0.60044943  0.33488436  0.65735356    -0.05000
C1616       C  0.62367421  0.31214768  0.64190422    -0.02100
C1617       C  0.61228567  0.27947053  0.63150227     0.02900
C1618       C  0.57801674  0.26807844  0.63781954    -0.05000
C1619       C  0.55587062  0.28946640  0.65584713    -0.02100
C1620       C  0.56673758  0.32275764  0.66509086     0.02900
C1621       C  0.65955710  0.32190118  0.63648987     0.37500
C1622       C  0.52122494  0.27800352  0.66418425     0.37500
C1623       C  0.54305789  0.34398531  0.68335368     0.35900
C1624       C  0.63640816  0.25768845  0.61429837     0.35900
N1625       N  0.52412065  0.36079232  0.69790409    -0.38900
N1626       N  0.65583182  0.24077342  0.60039620    -0.38900
N1627       N  0.49359071  0.26902211  0.67091808    -0.38300
N1628       N  0.68835090  0.32919859  0.63258199    -0.38300
C1629       C  0.57745484  0.40953175  0.00707947    -0.05000
C1630       C  0.55422358  0.43067684  0.52421459    -0.02100
C1631       C  0.56406588  0.44384773  0.55403889     0.02900
C1632       C  0.59679381  0.43528209  0.56718327    -0.05000
C1633       C  0.61847101  0.41209768  0.55120948    -0.02100
C1634       C  0.61038010  0.40159749  0.52046916     0.02900
C1635       C  0.51957378  0.43750178  0.01230131     0.37500
C1636       C  0.64592118  0.39448990  0.56822934     0.37500
C1637       C  0.63671228  0.38305929  0.50280161     0.35900
C1638       C  0.53968320  0.46450449  0.57198866     0.35900
N1639       N  0.65795099  0.36853936  0.98888323    -0.38900
N1640       N  0.52007236  0.48063557  0.58643548    -0.38900
N1641       N  0.66670195  0.37919467  0.58215689    -0.38300
N1642       N  0.49162139  0.44270347  0.00338418    -0.38300
C1643       C  0.54683768  0.39325832  0.81507597    -0.05000
C1644       C  0.54257148  0.42772858  0.80490788    -0.02100
C1645       C  0.55628901  0.43854416  0.77571305     0.02900
C1646       C  0.57553860  0.41512507  0.75708659    -0.05000
C1647       C  0.57747453  0.37985567  0.76660296    -0.02100
C1648       C  0.56248601  0.36901597  0.79509919     0.02900
C1649       C  0.52443069  0.45214890  0.82490077     0.37500
C1650       C  0.59559210  0.35426533  0.74779542     0.37500
C1651       C  0.56456260  0.33300851  0.80445066     0.35900
C1652       C  0.55194389  0.47411224  0.76585441     0.35900
N1653       N  0.56615535  0.30413291  0.81127554    -0.38900
N1654       N  0.54825529  0.50252189  0.75807652    -0.38900
N1655       N  0.61032510  0.33343557  0.73357028    -0.38300
N1656       N  0.50987321  0.47146770  0.84092690    -0.38300
C1657       C  0.01256826  0.08223443  0.89622840    -0.05000
C1658       C  0.04628653  0.09262294  0.88681349    -0.02100
C1659       C  0.06958328  0.06872547  0.87278963     0.02900
C1660       C  0.05914461  0.03434722  0.86636022    -0.05000
C1661       C  0.02465934  0.02460118  0.87407465    -0.02100
C1662       C  0.00197505  0.04799493  0.88930047     0.02900
C1663       C  0.05721554  0.12810649  0.89135050     0.37500
C1664       C  0.01228949  0.98980965  0.86803965     0.37500
C1665       C  0.96720990  0.03631867  0.89696715     0.35900
C1666       C  0.10432972  0.07989214  0.86460324     0.35900
N1667       N  0.93976443  0.02609257  0.90279095    -0.38900
N1668       N  0.13210455  0.08875876  0.85824630    -0.38900
N1669       N  0.00163977  0.96230674  0.86355264    -0.38300
N1670       N  0.06579192  0.15652289  0.89455173    -0.38300
C1671       C  0.40185233  0.04295597  0.63827098    -0.05000
C1672       C  0.42002415  0.04069539  0.60935254    -0.02100
C1673       C  0.43688490  0.06975702  0.59682641     0.02900
C1674       C  0.44300862  0.09885079  0.61560973    -0.05000
C1675       C  0.42505563  0.10168994  0.64460539    -0.02100
C1676       C  0.40314860  0.07445904  0.65509380     0.02900
C1677       C  0.42530752  0.00794377  0.59374185     0.37500
C1678       C  0.43047621  0.13165305  0.66441646     0.37500
C1679       C  0.38460484  0.07762892  0.68455348     0.35900
C1680       C  0.44651459  0.07064722  0.56393646     0.35900
N1681       N  0.36976097  0.08005570  0.70808051    -0.38900
N1682       N  0.45245255  0.07235853  0.53732430    -0.38900
N1683       N  0.43484277  0.15557013  0.68026214    -0.38300
N1684       N  0.43213446  0.98218859  0.58146071    -0.38300
C1685       C  0.25715426  0.00065090  0.73027395    -0.05000
C1686       C  0.22199721  0.99508482  0.72198056    -0.02100
C1687       C  0.19646198  0.99134190  0.74570540     0.02900
C1688       C  0.20523993  0.99562306  0.77781998    -0.05000
C1689       C  0.23888776  0.00723419  0.78550721    -0.02100
C1690       C  0.26475590  0.00939294  0.76192947     0.02900
C1691       C  0.21229539  0.99096948  0.68922011     0.37500
C1692       C  0.24769831  0.01390123  0.81817243     0.37500
C1693       C  0.29948229  0.01988439  0.77051402     0.35900
C1694       C  0.16167916  0.98064130  0.73713734     0.35900
N1695       N  0.32683667  0.02898401  0.77801840    -0.38900
N1696       N  0.13409388  0.97191947  0.72986277    -0.38900
N1697       N  0.25455223  0.01921467  0.84427225    -0.38300
N1698       N  0.20414203  0.98836225  0.66309220    -0.38300
C1699       C  0.90916605  0.53099828  0.86680917    -0.05000
C1700       C  0.90067726  0.56641997  0.86688202    -0.02100
C1701       C  0.92297495  0.59082683  0.88146419     0.02900
C1702       C  0.95406550  0.58005874  0.89696118    -0.05000
C1703       C  0.96119585  0.54399901  0.89841094    -0.02100
C1704       C  0.93980277  0.52007287  0.88244651     0.02900
C1705       C  0.86948840  0.57792000  0.85071642     0.37500
C1706       C  0.99087117  0.53064056  0.91586231     0.37500
C1707       C  0.95010454  0.48397766  0.88233970     0.35900
C1708       C  0.91330478  0.62702857  0.88048329     0.35900
N1709       N  0.95968425  0.45563336  0.88260976    -0.38900
N1710       N  0.90556586  0.65589969  0.87953641    -0.38900
N1711       N  0.01432992  0.51958406  0.92972512    -0.38300
N1712       N  0.84469438  0.58702483  0.83763604    -0.38300
C1713       C  0.08014028  0.76052891  0.87955555    -0.05000
C1714       C  0.05671690  0.78276686  0.86324061    -0.02100
C1715       C  0.06585819  0.81735700  0.85706992     0.02900
C1716       C  0.09945554  0.82942466  0.86424088    -0.05000
C1717       C  0.12436647  0.80634452  0.87651763    -0.02100
C1718       C  0.11485467  0.77217668  0.88432507     0.02900
C1719       C  0.02379481  0.77014245  0.85121262     0.37500
C1720       C  0.15972563  0.81796997  0.88170546     0.37500
C1721       C  0.14161240  0.74911635  0.89630732     0.35900
C1722       C  0.04074657  0.84042391  0.84237167     0.35900
N1723       N  0.16308036  0.73079922  0.90558771    -0.38900
N1724       N  0.02078141  0.85884741  0.83079061    -0.38900
N1725       N  0.18804152  0.82704218  0.88568555    -0.38300
N1726       N  0.99756584  0.76024444  0.84131050    -0.38300
C1727       C  0.95072648  0.92116009  0.61990561    -0.05000
C1728       C  0.92787942  0.93785181  0.59880849    -0.02100
C1729       C  0.90080094  0.95939857  0.61035737     0.02900
C1730       C  0.89937542  0.96848437  0.64282995    -0.05000
C1731       C  0.92121202  0.95053987  0.66392457    -0.02100
C1732       C  0.94452921  0.92507097  0.65270577     0.02900
C1733       C  0.93134997  0.93172181  0.56531862     0.37500
C1734       C  0.91897895  0.95745932  0.69741932     0.37500
C1735       C  0.96025827  0.90173644  0.67527434     0.35900
C1736       C  0.87479285  0.97232121  0.58855441     0.35900
N1737       N  0.97100784  0.88270387  0.69392312    -0.38900
N1738       N  0.85381503  0.98209774  0.57110232    -0.38900
N1739       N  0.91734932  0.96315519  0.72411306    -0.38300
N1740       N  0.93413738  0.92675414  0.53858726    -0.38300
C1741       C  0.16223373  0.89572161  0.61463657    -0.05000
C1742       C  0.17718786  0.87941202  0.64099560    -0.02100
C1743       C  0.21053095  0.88912898  0.65177561     0.02900
C1744       C  0.22979754  0.91511686  0.63577251    -0.05000
C1745       C  0.21493597  0.93013488  0.60814028    -0.02100
C1746       C  0.18125093  0.92070303  0.59802606     0.02900
C1747       C  0.15797509  0.85253683  0.65714957     0.37500
C1748       C  0.23340191  0.95608833  0.59014634     0.37500
C1749       C  0.16592747  0.93696797  0.57046542     0.35900
C1750       C  0.22460222  0.87182070  0.67932749     0.35900
N1751       N  0.15382268  0.95012469  0.54855189    -0.38900
N1752       N  0.23551945  0.85802780  0.70143385    -0.38900
N1753       N  0.24797577  0.97670921  0.57558390    -0.38300
N1754       N  0.14268269  0.83099009  0.66984729    -0.38300
C1755       C  0.99539135  0.73163401  0.98033598    -0.05000
C1756       C  0.99014917  0.72167563  0.51190937    -0.02100
C1757       C  0.99255834  0.74620140  0.53665053     0.02900
C1758       C  0.00012743  0.78108794  0.52997837    -0.05000
C1759       C  0.00065065  0.79186990  0.49825518    -0.02100
C1760       C  0.99751447  0.76732548  0.97366937     0.02900
C1761       C  0.98281291  0.68605393  0.51919393     0.37500
C1762       C  0.00677093  0.82786695  0.99102958     0.37500
C1763       C  0.99779253  0.77886663  0.94131986     0.35900
C1764       C  0.99002498  0.73502898  0.56912608     0.35900
N1765       N  0.99718682  0.78879290  0.91567192    -0.38900
N1766       N  0.98793672  0.72602602  0.59501637    -0.38900
N1767       N  0.01175682  0.85662546  0.98521868    -0.38300
N1768       N  0.97585349  0.65802616  0.52595002    -0.38300
C1769       C  0.05111323  0.88514714  0.69855816    -0.05000
C1770       C  0.06564457  0.85988786  0.71888838    -0.02100
C1771       C  0.07872900  0.86956714  0.74857900     0.02900
C1772       C  0.07632640  0.90413095  0.75867757    -0.05000
C1773       C  0.05928926  0.92877168  0.74003407    -0.02100
C1774       C  0.04707924  0.91964236  0.70991252     0.02900
C1775       C  0.06890277  0.82413438  0.70925023     0.37500
C1776       C  0.05593320  0.96402338  0.75133989     0.37500
C1777       C  0.03090360  0.94636873  0.69082479     0.35900
C1778       C  0.09543730  0.84392233  0.76853570     0.35900
N1779       N  0.01832620  0.96791630  0.67569476    -0.38900
N1780       N  0.10880395  0.82323056  0.78408918    -0.38900
N1781       N  0.05353879  0.99210643  0.76039126    -0.38300
N1782       N  0.07182933  0.79541598  0.70228131    -0.38300
C1783       C  0.08675618  0.91311591  0.50632354    -0.05000
C1784       C  0.06831565  0.94113160  0.99322465    -0.02100
C1785       C  0.07957282  0.95614024  0.96476550     0.02900
C1786       C  0.10891915  0.94284181  0.94887021    -0.05000
C1787       C  0.12848719  0.91615769  0.96293799    -0.02100
C1788       C  0.11790629  0.90186107  0.49177127     0.02900
C1789       C  0.03716505  0.95398383  0.50837846     0.37500
C1790       C  0.15826200  0.90161371  0.94681333     0.37500
C1791       C  0.13992173  0.87610798  0.50675893     0.35900
C1792       C  0.06095461  0.98554640  0.95205555     0.35900
N1793       N  0.15782207  0.85582749  0.51858632    -0.38900
N1794       N  0.04591564  0.00931892  0.94272476    -0.38900
N1795       N  0.18187447  0.88954256  0.93414766    -0.38300
N1796       N  0.01235594  0.96417822  0.52055631    -0.38300
C1797       C  0.02806292  0.41922946  0.61744592    -0.05000
C1798       C  0.04367302  0.44158599  0.59551936    -0.02100
C1799       C  0.06872287  0.46600282  0.60550816     0.02900
C1800       C  0.07651553  0.47050673  0.63789997    -0.05000
C1801       C  0.06299968  0.44660745  0.65954713    -0.02100
C1802       C  0.03997990  0.42026216  0.64926709     0.02900
C1803       C  0.03481261  0.43872967  0.56237645     0.37500
C1804       C  0.07262227  0.44938215  0.69246898     0.37500
C1805       C  0.02795460  0.39503712  0.67195353     0.35900
C1806       C  0.08798315  0.48458041  0.58184361     0.35900
N1807       N  0.01867837  0.37485658  0.69015429    -0.38900
N1808       N  0.10346339  0.49721580  0.56165996    -0.38900
N1809       N  0.08045582  0.45163227  0.71871426    -0.38300
N1810       N  0.02776830  0.43639869  0.53595113    -0.38300
C1811       C  0.03979945  0.62507329  0.81039359    -0.05000
C1812       C  0.05768738  0.64895068  0.79135277    -0.02100
C1813       C  0.07380718  0.63789330  0.76328935     0.02900
C1814       C  0.07039741  0.60316254  0.75256069    -0.05000
C1815       C  0.04826386  0.58074181  0.76926128    -0.02100
C1816       C  0.03351943  0.59140266  0.79822685     0.02900
C1817       C  0.06253086  0.68431093  0.80182566     0.37500
C1818       C  0.04217524  0.54601198  0.75773992     0.37500
C1819       C  0.01250155  0.56714167  0.81579030     0.35900
C1820       C  0.09548308  0.66247316  0.74665486     0.35900
N1821       N  0.99594430  0.54740128  0.82955565    -0.38900
N1822       N  0.11308964  0.68241163  0.73424047    -0.38900
N1823       N  0.03711420  0.51836049  0.74848946    -0.38300
N1824       N  0.06656234  0.71256189  0.80988126    -0.38300
C1825       C  0.10185026  0.57422976  0.56350348    -0.05000
C1826       C  0.12599255  0.57134148  0.53855456    -0.02100
C1827       C  0.11585124  0.58054800  0.50773209     0.02900
C1828       C  0.08210403  0.59300756  0.00205195    -0.05000
C1829       C  0.05663453  0.58938516  0.52517014    -0.02100
C1830       C  0.06636347  0.58068866  0.55607590     0.07700
C1831       C  0.16079932  0.55831611  0.54411895     0.37500
C1832       C  0.02040186  0.59040782  0.51590190     0.37500
C1833       C  0.03943372  0.57695584  0.57963353     0.35900
C1834       C  0.13916367  0.57457823  0.98158633     0.35900
N1835       N  0.01786143  0.57399845  0.59831474    -0.38900
N1836       N  0.15741744  0.56838027  0.96077649    -0.38900
N1837       N  0.99170862  0.58954481  0.50777742    -0.38300
N1838       N  0.18841986  0.54738106  0.54834015    -0.38300
C1839       C  0.10713301  0.68414308  0.65654001    -0.05000
C1840       C  0.13088739  0.70523873  0.64012924    -0.02100
C1841       C  0.12083529  0.73833580  0.62936706     0.02900
C1842       C  0.08647055  0.75072028  0.63436043    -0.05000
C1843       C  0.06357479  0.73036465  0.65283681    -0.02100
C1844       C  0.07371334  0.69743936  0.66356534     0.02900
C1845       C  0.16536916  0.69243121  0.63274714     0.37500
C1846       C  0.02937875  0.74298567  0.66167448     0.37500
C1847       C  0.04915237  0.67744496  0.68202581     0.35900
C1848       C  0.14627852  0.75900291  0.61273798     0.35900
N1849       N  0.02930919  0.66171766  0.69652462    -0.38900
N1850       N  0.16679677  0.77534806  0.59964827    -0.38900
N1851       N  0.00216645  0.75279883  0.66896298    -0.38300
N1852       N  0.19287902  0.68233365  0.62685480    -0.38300
C1853       C  0.40459032  0.48239417  0.87522177    -0.05000
C1854       C  0.43106732  0.49066057  0.89733719    -0.02100
C1855       C  0.45347881  0.46497409  0.90910174     0.02900
C1856       C  0.44983667  0.43012332  0.89953296    -0.05000
C1857       C  0.42174270  0.42131158  0.87934950    -0.02100
C1858       C  0.39923898  0.44733093  0.86729550     0.02900
C1859       C  0.43595760  0.52585794  0.90844352     0.37500
C1860       C  0.41721223  0.38588798  0.86913936     0.37500
C1861       C  0.37176679  0.43813168  0.84545310     0.35900
C1862       C  0.48158245  0.47535329  0.93002070     0.35900
N1863       N  0.34982946  0.43080645  0.82800913    -0.38900
N1864       N  0.50428457  0.48443580  0.94588903    -0.38900
N1865       N  0.41355921  0.35762878  0.86093380    -0.38300
N1866       N  0.44078395  0.55360781  0.91754335    -0.38300
C1867       C  0.22794398  0.60577242  0.87294457    -0.05000
C1868       C  0.19994619  0.60603281  0.85134512    -0.02100
C1869       C  0.16625894  0.61350582  0.86171880     0.02900
C1870       C  0.16021377  0.62345769  0.89329021    -0.05000
C1871       C  0.18910872  0.62716598  0.91397238    -0.02100
C1872       C  0.22264764  0.61733182  0.90402960     0.02900
C1873       C  0.20534276  0.59868030  0.81812263     0.37500
C1874       C  0.18476585  0.64037026  0.94569029     0.37500
C1875       C  0.25196860  0.62045411  0.92543927     0.35900
C1876       C  0.13809628  0.61065350  0.83921694     0.35900
N1877       N  0.27535542  0.62301352  0.94245875    -0.38900
N1878       N  0.11638729  0.60727500  0.82067607    -0.38900
N1879       N  0.18153649  0.65086838  0.97102805    -0.38300
N1880       N  0.20936603  0.59366241  0.79152416    -0.38300
C1881       C  0.26271246  0.51534835  0.78068536    -0.05000
C1882       C  0.22715955  0.51277573  0.78833967    -0.02100
C1883       C  0.20188065  0.51352263  0.76408691     0.02900
C1884       C  0.21217136  0.51525796  0.73216400    -0.05000
C1885       C  0.24743289  0.50896654  0.72486227    -0.02100
C1886       C  0.27276252  0.50983847  0.74911694     0.02900
C1887       C  0.21638440  0.51339053  0.82100396     0.37500
C1888       C  0.25824520  0.50553294  0.69236325     0.37500
C1889       C  0.30937002  0.50771134  0.74150133     0.35900
C1890       C  0.16530754  0.51533669  0.77197423     0.35900
N1891       N  0.33862104  0.50603160  0.73554751    -0.38900
N1892       N  0.13611216  0.51702636  0.77814587    -0.38900
N1893       N  0.26696196  0.50279609  0.66644669    -0.38300
N1894       N  0.20775134  0.51389137  0.84705810    -0.38300
C1895       C  0.52958871  0.60059332  0.61771095    -0.05000
C1896       C  0.54006538  0.59923766  0.64991729    -0.02100
C1897       C  0.56257233  0.57272509  0.66081757     0.02900
C1898       C  0.57709748  0.54908011  0.63948753    -0.05000
C1899       C  0.57111061  0.55403536  0.60683548    -0.02100
C1900       C  0.54636758  0.57853765  0.59613541     0.02900
C1901       C  0.52683435  0.62409111  0.67242446     0.37500
C1902       C  0.59074895  0.53440403  0.58395596     0.37500
C1903       C  0.53857981  0.58137711  0.56280258     0.35900
C1904       C  0.57109299  0.56986529  0.69397983     0.35900
N1905       N  0.53235409  0.58363548  0.53620476    -0.38900
N1906       N  0.57811021  0.56769253  0.72041751    -0.38900
N1907       N  0.60664652  0.51985062  0.56508086    -0.38300
N1908       N  0.51669175  0.64387884  0.69062476    -0.38300
C1909       C  0.39308316  0.61371434  0.50384693    -0.05000
C1910       C  0.38720882  0.57794487  0.49840525    -0.02100
C1911       C  0.37508111  0.56639198  0.96869362     0.02900
C1912       C  0.36817857  0.59045731  0.94454372    -0.05000
C1913       C  0.37124133  0.62594167  0.95086150    -0.02100
C1914       C  0.38469586  0.63760692  0.97956267     0.02900
C1915       C  0.39201940  0.55295763  0.52348966     0.37500
C1916       C  0.35809756  0.65101854  0.92854933     0.37500
C1917       C  0.38902747  0.67471333  0.98350120     0.35900
C1918       C  0.36960553  0.52985433  0.96310082     0.35900
N1919       N  0.39182212  0.70433718  0.48616333    -0.38900
N1920       N  0.36499385  0.50072926  0.95870635    -0.38900
N1921       N  0.34697670  0.67172406  0.91178341    -0.38300
N1922       N  0.39561448  0.53298447  0.54351966    -0.38300
C1923       C  0.42805416  0.62982262  0.69694018    -0.05000
C1924       C  0.43862315  0.59787094  0.71039701    -0.02100
C1925       C  0.42450675  0.58685017  0.73932357     0.02900
C1926       C  0.40014162  0.60781296  0.75497870    -0.05000
C1927       C  0.39115868  0.64060252  0.74208880    -0.02100
C1928       C  0.40353049  0.65046490  0.71257771     0.02900
C1929       C  0.46142682  0.57467755  0.69337432     0.37500
C1930       C  0.36776528  0.66433688  0.75802035     0.37500
C1931       C  0.38597609  0.67847371  0.69609377     0.35900
C1932       C  0.43305566  0.55289709  0.75160409     0.35900
N1933       N  0.37065071  0.69980266  0.68295216    -0.38900
N1934       N  0.43970749  0.52575079  0.76133022    -0.38900
N1935       N  0.34889097  0.68379235  0.76959570    -0.38300
N1936       N  0.47898029  0.55541663  0.67997256    -0.38300
C1937       C  0.31694051  0.61870579  0.61568788    -0.05000
C1938       C  0.28822811  0.62243858  0.59500940    -0.02100
C1939       C  0.25437869  0.61311854  0.60483345     0.02900
C1940       C  0.24862369  0.60101382  0.63580371    -0.05000
C1941       C  0.27725478  0.59879415  0.65676790    -0.02100
C1942       C  0.31126267  0.60531133  0.64610222     0.02900
C1943       C  0.29374166  0.63450262  0.56306667     0.37500
C1944       C  0.27202036  0.59111704  0.68984160     0.37500
C1945       C  0.34028297  0.59682774  0.66639175     0.35900
C1946       C  0.22520879  0.61859661  0.58375471     0.35900
N1947       N  0.36275681  0.58830935  0.68273279    -0.38900
N1948       N  0.20206618  0.62376182  0.56694920    -0.38900
N1949       N  0.26813835  0.58625044  0.71646994    -0.38300
N1950       N  0.29832556  0.64396736  0.53757386    -0.38300
C1951       C  0.39021693  0.77047344  0.63690654    -0.05000
C1952       C  0.39807431  0.78004580  0.66829218    -0.02100
C1953       C  0.38217736  0.80942101  0.68182866     0.02900
C1954       C  0.36250675  0.83225757  0.66310314    -0.05000
C1955       C  0.35302158  0.82207089  0.63240607    -0.02100
C1956       C  0.36657106  0.79124157  0.61939532     0.02900
C1957       C  0.42227698  0.75979561  0.68691319     0.37500
C1958       C  0.32997340  0.84387235  0.61393549     0.37500
C1959       C  0.35770814  0.78221786  0.58720725     0.35900
C1960       C  0.38207784  0.81369805  0.71566396     0.35900
N1961       N  0.35057061  0.77511227  0.56152863    -0.38900
N1962       N  0.38083529  0.81619559  0.74277475    -0.38900
N1963       N  0.31150218  0.86131733  0.59937401    -0.38300
N1964       N  0.44182056  0.74389236  0.70179325    -0.38300
C1965       C  0.57305133  0.97002783  0.87317739    -0.05000
C1966       C  0.55515454  0.94981135  0.85095907    -0.02100
C1967       C  0.53107326  0.92451041  0.86091883     0.02900
C1968       C  0.52322303  0.92027175  0.89331074    -0.05000
C1969       C  0.54322486  0.93842362  0.91561805    -0.02100
C1970       C  0.56934013  0.96173684  0.90561919     0.02900
C1971       C  0.56342806  0.95338217  0.81786618     0.37500
C1972       C  0.53642559  0.93356745  0.94885845     0.37500
C1973       C  0.59230034  0.97689789  0.92890913     0.35900
C1974       C  0.51524204  0.90255934  0.83740544     0.35900
N1975       N  0.61084520  0.98835887  0.94767611    -0.38900
N1976       N  0.50437184  0.88523663  0.81752820    -0.38900
N1977       N  0.53079682  0.92976169  0.97536798    -0.38300
N1978       N  0.57060825  0.95554932  0.79152869    -0.38300
C1979       C  0.38743783  0.75755097  0.86585102    -0.05000
C1980       C  0.41035800  0.73604527  0.84888219    -0.02100
C1981       C  0.39881414  0.70410461  0.83697757     0.02900
C1982       C  0.36447886  0.69250784  0.84286351    -0.05000
C1983       C  0.34032075  0.71610100  0.85580226    -0.02100
C1984       C  0.35186654  0.74830267  0.86759377     0.02900
C1985       C  0.44664424  0.74534941  0.84539466     0.37500
C1986       C  0.30412622  0.70646853  0.85935050     0.37500
C1987       C  0.32697155  0.77155052  0.88197078     0.35900
C1988       C  0.42275678  0.68319794  0.81869926     0.35900
N1989       N  0.30672642  0.78972415  0.89337615    -0.38900
N1990       N  0.44195059  0.66668952  0.80414805    -0.38900
N1991       N  0.27532822  0.69871673  0.86242378    -0.38300
N1992       N  0.47562316  0.75255027  0.84267095    -0.38300
C1993       C  0.47469541  0.77851336  0.97567080    -0.05000
C1994       C  0.48371223  0.79223814  0.00537318    -0.02100
C1995       C  0.48282617  0.77103725  0.53247480     0.02900
C1996       C  0.47528877  0.73556254  0.52948519    -0.05000
C1997       C  0.47458686  0.72079540  0.49909085    -0.02100
C1998       C  0.47346901  0.74229226  0.97213841     0.02900
C1999       C  0.49167431  0.82868908  0.00802314     0.37500
C2000       C  0.47344567  0.68356217  0.49584460     0.37500
C2001       C  0.46868404  0.72735161  0.94117427     0.35900
C2002       C  0.48654025  0.78615765  0.56348567     0.35900
N2003       N  0.46510566  0.71521062  0.91649228    -0.38900
N2004       N  0.48938172  0.79824309  0.58826834    -0.38900
N2005       N  0.47297356  0.65381227  0.49332161    -0.38300
N2006       N  0.49825549  0.85776039  0.00988338    -0.38300
C2007       C  0.24381577  0.91374943  0.87855204    -0.05000
C2008       C  0.26450694  0.89073670  0.86068115    -0.02100
C2009       C  0.29752340  0.88060889  0.87173010     0.02900
C2010       C  0.30954977  0.89210525  0.90131167    -0.05000
C2011       C  0.28898423  0.91498251  0.91922736    -0.02100
C2012       C  0.25663140  0.92647454  0.90755214     0.02900
C2013       C  0.25273613  0.87864490  0.83011000     0.37500
C2014       C  0.30041017  0.92581879  0.95024417     0.37500
C2015       C  0.23640035  0.95093362  0.92579898     0.35900
C2016       C  0.32005465  0.86003311  0.85176420     0.35900
N2017       N  0.22041323  0.97055145  0.94034439    -0.38900
N2018       N  0.33824219  0.84393576  0.83583485    -0.38900
N2019       N  0.30878081  0.93437626  0.97522465    -0.38300
N2020       N  0.24343622  0.86888510  0.80575478    -0.38300
C2021       C  0.42273932  0.90416940  0.81659698    -0.05000
C2022       C  0.41634702  0.93985156  0.81131808    -0.02100
C2023       C  0.40730152  0.95133320  0.78100539     0.02900
C2024       C  0.40611089  0.92751798  0.75632409    -0.05000
C2025       C  0.42084393  0.89469686  0.76015220    -0.02100
C2026       C  0.42692148  0.88189705  0.79049427     0.02900
C2027       C  0.41991430  0.96479203  0.83660989     0.37500
C2028       C  0.43279787  0.87595081  0.73275925     0.37500
C2029       C  0.43599409  0.84578324  0.79443391     0.35900
C2030       C  0.40190942  0.98762682  0.77449420     0.35900
N2031       N  0.44316327  0.81692518  0.79737004    -0.38900
N2032       N  0.39909307  0.01675056  0.76897545    -0.38900
N2033       N  0.44374848  0.86171754  0.71099382    -0.38300
N2034       N  0.42307661  0.98467446  0.85674615    -0.38300
C2035       C  0.39709997  0.90815494  0.50849892    -0.05000
C2036       C  0.39978162  0.88567935  0.53435645    -0.02100
C2037       C  0.39272997  0.89759961  0.56468668     0.02900
C2038       C  0.37553530  0.92994474  0.56923251    -0.05000
C2039       C  0.37158706  0.95217060  0.54284306    -0.02100
C2040       C  0.38417909  0.94193689  0.51297482     0.02900
C2041       C  0.40840302  0.84943398  0.53018453     0.37500
C2042       C  0.35666817  0.98635056  0.54642669     0.37500
C2043       C  0.38210065  0.96552603  0.98649996     0.35900
C2044       C  0.40601985  0.87672659  0.59054618     0.35900
N2045       N  0.38045590  0.98431009  0.96534974    -0.38900
N2046       N  0.41811174  0.86028636  0.61054979    -0.38900
N2047       N  0.34505805  0.01375225  0.54924820    -0.38300
N2048       N  0.41368827  0.82014360  0.52797247    -0.38300
loop_ 
_geom_bond_atom_site_label_1 
_geom_bond_atom_site_label_2 
_geom_bond_distance 
_geom_bond_site_symmetry_2 
_ccdc_geom_bond_type 
O1           C16   1.262       .  A
O1           Al9   1.898       .  S
C2           O12   1.267       .  A
C2            O3   1.259       .  A
C2          C997   1.474       .  S
O3           Al5   1.864       .  S
O4            C6   1.261       .  A
O4           Al5   1.922       .  S
Al5          O13   1.916       .  S
Al5          O15   1.904       .  S
Al5          O14   1.791       .  S
C6           O19   1.260       .  A
C6          C986   1.479       .  S
O7           C17   1.253       .  A
O7           Al9   1.897       .  S
O8           C21   1.272       .  A
O8          Al18   1.958       .  S
Al9          O22   1.884       .  S
Al9          O19   1.899       .  S
Al9          O14   1.781       .  S
O10          C17   1.255       .  A
O10         Al18   1.901       .  S
O11          C20   1.262       .  A
O11         Al18   1.920       .  S
O12         Al18   1.908       .  S
O13          C20   1.259       .  A
O14         Al18   1.787       .  S
O15          C16   1.266       .  A
C16        C2035   1.475       .  S
C17         C955   1.494       .  S
C20         C944   1.498       .  S
C21          O22   1.263       .  A
C21         C969   1.492       .  S
O23          C38   1.249       .  A
O23         Al31   1.842       .  S
C24          O34   1.275       .  A
C24          O25   1.266       .  A
C24         C899   1.474       .  S
O25         Al27   1.896       .  S
O26          C28   1.261       .  A
O26         Al27   1.918       .  S
Al27         O35   1.917       .  S
Al27         O37   1.912       .  S
Al27         O36   1.803       .  S
C28          O41   1.257       .  A
C28         C913   1.496       .  S
O29          C39   1.246       .  A
O29         Al31   1.878       .  S
O30          C43   1.274       .  A
O30         Al40   1.930       .  S
Al31         O44   1.925       .  S
Al31         O41   1.892       .  S
Al31         O36   1.786       .  S
O32          C39   1.256       .  A
O32         Al40   1.936       .  S
O33          C42   1.252       .  A
O33         Al40   1.905       .  S
O34         Al40   1.897       .  S
O35          C42   1.258       .  A
O36         Al40   1.802       .  S
O37          C38   1.260       .  A
C38         C885   1.494       .  S
C39         C927   1.500       .  S
C42         C871   1.506       .  S
C43          O44   1.273       .  A
C43         C972   1.491       .  S
O45          C60   1.262       .  A
O45         Al53   1.885       .  S
C46          O56   1.258       .  A
C46          O47   1.264       .  A
C46         C888   1.481       .  S
O47         Al49   1.925       .  S
O48          C50   1.255       .  A
O48         Al49   1.901       .  S
Al49         O57   1.916       .  S
Al49         O59   1.948       .  S
Al49         O58   1.806       .  S
C50          O63   1.248       .  A
C50         C843   1.479       .  S
O51          C61   1.264       .  A
O51         Al53   1.918       .  S
O52          C65   1.264       .  A
O52         Al62   1.912       .  S
Al53         O66   1.851       .  S
Al53         O63   1.857       .  S
Al53         O58   1.788       .  S
O54          C61   1.259       .  A
O54         Al62   1.895       .  S
O55          C64   1.257       .  A
O55         Al62   1.882       .  S
O56         Al62   1.862       .  S
O57          C64   1.262       .  A
O58         Al62   1.789       .  S
O59          C60   1.271       .  A
C60         C857   1.494       .  S
C61         C958   1.501       .  S
C64         C829   1.500       .  S
C65          O66   1.251       .  A
C65         C902   1.482       .  S
O67          C82   1.264       .  A
O67         Al75   1.883       .  S
C68          O78   1.255       .  A
C68          O69   1.267       .  A
C68         C801   1.490       .  S
O69         Al71   1.927       .  S
O70          C72   1.258       .  A
O70         Al71   1.919       .  S
Al71         O79   1.923       .  S
Al71         O81   1.958       .  S
Al71         O80   1.795       .  S
C72          O85   1.254       .  A
C72         C916   1.499       .  S
O73          C83   1.264       .  A
O73         Al75   1.906       .  S
O74          C87   1.269       .  A
O74         Al84   1.929       .  S
Al75         O88   1.896       .  S
Al75         O85   1.901       .  S
Al75         O80   1.787       .  S
O76          C83   1.261       .  A
O76         Al84   1.898       .  S
O77          C86   1.261       .  A
O77         Al84   1.918       .  S
O78         Al84   1.864       .  S
O79          C86   1.263       .  A
O80         Al84   1.790       .  S
O81          C82   1.275       .  A
C82         C860   1.498       .  S
C83         C815   1.494       .  S
C86         C776   1.500       .  S
C87          O88   1.259       .  A
C87         C790   1.503       .  S
O89         C104   1.259       .  A
O89         Al97   1.877       .  S
C90         O100   1.272       .  A
C90          O91   1.264       .  A
C90         C745   1.496       .  S
O91         Al93   1.888       .  S
O92          C94   1.256       .  A
O92         Al93   1.899       .  S
Al93        O101   1.939       .  S
Al93        O103   1.910       .  S
Al93        O102   1.791       .  S
C94         O107   1.254       .  A
C94         C717   1.481       .  S
O95         C105   1.252       .  A
O95         Al97   1.895       .  S
O96         C109   1.276   1_655  A
O96        Al106   1.938   1_655  S
Al97        O110   1.919       .  S
Al97        O107   1.895       .  S
Al97        O102   1.785       .  S
O98         C105   1.253       .  A
O98        Al106   1.903       .  S
O99         C108   1.255       .  A
O99        Al106   1.908   1_655  S
O100       Al106   1.915       .  S
O101        C108   1.266   1_455  A
O102       Al106   1.795       .  S
O103        C104   1.264       .  A
C104        C759   1.487       .  S
C105        C818   1.505       .  S
C108        C703   1.509       .  S
C109        O110   1.268       .  A
C109        C734   1.494       .  S
O111        C126   1.260       .  A
O111       Al119   1.894       .  S
C112        O122   1.269       .  A
C112        O113   1.259       .  A
C112        C787   1.502       .  S
O113       Al115   1.904       .  S
O114        C116   1.260       .  A
O114       Al115   1.883       .  S
Al115       O123   1.894       .  S
Al115       O125   1.902       .  S
Al115       O124   1.787       .  S
C116        O129   1.259       .  A
C116        C846   1.493       .  S
O117        C127   1.258       .  A
O117       Al119   1.891       .  S
O118        C131   1.273   1_655  A
O118       Al128   1.956   1_655  S
Al119       O132   1.904       .  S
Al119       O129   1.905       .  S
Al119       O124   1.782       .  S
O120        C127   1.263       .  A
O120       Al128   1.921       .  S
O121        C130   1.265       .  A
O121       Al128   1.931   1_655  S
O122       Al128   1.926       .  S
O123        C130   1.261   1_455  A
O124       Al128   1.793       .  S
O125        C126   1.256       .  A
C126        C804   1.470       .  S
C127        C689   1.510       .  S
C130        C678   1.515       .  S
C131        O132   1.261       .  A
C131        C731   1.500   1_455  S
O133        C148   1.263       .  A
O133       Al141   1.890       .  S
C134        O144   1.249       .  A
C134        O135   1.275       .  A
C134       C1014   1.502       .  S
O135       Al137   1.971       .  S
O136        C138   1.258       .  A
O136       Al137   1.901       .  S
Al137       O145   1.930   1_565  S
Al137       O147   1.989       .  S
Al137       O146   1.775       .  S
C138        O151   1.263       .  A
C138        C720   1.511       .  S
O139        C149   1.262       .  A
O139       Al141   1.913       .  S
O140        C153   1.255       .  A
O140       Al150   1.878       .  S
Al141       O154   1.927       .  S
Al141       O151   1.927       .  S
Al141       O146   1.774       .  S
O142        C149   1.268       .  A
O142       Al150   1.950       .  S
O143        C152   1.262   1_565  A
O143       Al150   1.920       .  S
O144       Al150   1.826       .  S
O145        C152   1.267       .  A
O146       Al150   1.772       .  S
O147        C148   1.280       .  A
C148        C661   1.505   1_565  S
C149        C930   1.491       .  S
C152        C647   1.502       .  S
C153        O154   1.268       .  A
C153       C1000   1.459       .  S
O155        C170   1.267       .  A
O155       Al163   1.914       .  S
C156        O166   1.264       .  A
C156        O157   1.270       .  A
C156        C762   1.482       .  S
O157       Al159   1.917       .  S
O158        C160   1.259       .  A
O158       Al159   1.922       .  S
Al159       O167   1.936   1_565  S
Al159       O169   1.942       .  S
Al159       O168   1.793       .  S
C160        O173   1.254       .  A
C160        C983   1.486       .  S
O161        C171   1.258       .  A
O161       Al163   1.902       .  S
O162        C175   1.259       .  A
O162       Al172   1.902       .  S
Al163       O176   1.870       .  S
Al163       O173   1.883       .  S
Al163       O168   1.781       .  S
O164        C171   1.257       .  A
O164       Al172   1.891       .  S
O165        C174   1.259   1_565  A
O165       Al172   1.905       .  S
O166       Al172   1.909       .  S
O167        C174   1.263       .  A
O168       Al172   1.785       .  S
O169        C170   1.276       .  A
C170        C664   1.495       .  S
C171        C692   1.482       .  S
C174        C636   1.509       .  S
C175        O176   1.255       .  A
C175        C748   1.466       .  S
O177        C192   1.255       .  A
O177       Al185   1.889       .  S
C178        O188   1.272       .  A
C178        O179   1.254       .  A
C178        C608   1.481       .  S
O179       Al181   1.862       .  S
O180        C182   1.268       .  A
O180       Al181   1.921       .  S
Al181       O189   1.911       .  S
Al181       O191   1.918       .  S
Al181       O190   1.803       .  S
C182        O195   1.265       .  A
C182        C591   1.499       .  S
O183        C193   1.251       .  A
O183       Al185   1.899       .  S
O184        C197   1.284       .  A
O184       Al194   1.985       .  S
Al185       O198   1.870       .  S
Al185       O195   1.891       .  S
Al185       O190   1.792       .  S
O186        C193   1.248       .  A
O186       Al194   1.900       .  S
O187        C196   1.255       .  A
O187       Al194   1.901       .  S
O188       Al194   1.933       .  S
O189        C196   1.259       .  A
O190       Al194   1.793       .  S
O191        C192   1.262       .  A
C192        C622   1.496       .  S
C193        C563   1.503       .  S
C196        C874   1.497       .  S
C197        O198   1.265       .  A
C197        C577   1.501       .  S
O199        C214   1.257       .  A
O199       Al207   1.890       .  S
C200        O210   1.272       .  A
C200        O201   1.258       .  A
C200        C521   1.491       .  S
O201       Al203   1.888       .  S
O202        C204   1.251       .  A
O202       Al203   1.868       .  S
Al203       O211   1.900       .  S
Al203       O213   1.864       .  S
Al203       O212   1.795       .  S
C204        O217   1.255       .  A
C204        C535   1.469       .  S
O205        C215   1.251       .  A
O205       Al207   1.893       .  S
O206        C219   1.278       .  A
O206       Al216   1.953       .  S
Al207       O220   1.904       .  S
Al207       O217   1.895       .  S
Al207       O212   1.798       .  S
O208        C215   1.254       .  A
O208       Al216   1.901       .  S
O209        C218   1.257       .  A
O209       Al216   1.917       .  S
O210       Al216   1.935       .  S
O211        C218   1.257       .  A
O212       Al216   1.799       .  S
O213        C214   1.251       .  A
C214        C510   1.476       .  S
C215        C549   1.510       .  S
C218        C675   1.496       .  S
C219        O220   1.266       .  A
C219        C580   1.497       .  S
O221        C236   1.276       .  A
O221       Al229   1.943       .  S
C222        O232   1.269       .  A
C222        O223   1.273       .  A
C222        C507   1.483       .  S
O223       Al225   1.908       .  S
O224        C226   1.255       .  A
O224       Al225   1.916       .  S
Al225       O233   1.911       .  S
Al225       O235   1.931       .  S
Al225       O234   1.796       .  S
C226        O239   1.251       .  A
C226        C479   1.499       .  S
O227        C237   1.260       .  A
O227       Al229   1.911       .  S
O228        C241   1.264       .  A
O228       Al238   1.920       .  S
Al229       O242   1.858       .  S
Al229       O239   1.892       .  S
Al229       O234   1.779       .  S
O230        C237   1.257       .  A
O230       Al238   1.897       .  S
O231        C240   1.262       .  A
O231       Al238   1.920       .  S
O232       Al238   1.907       .  S
O233        C240   1.255       .  A
O234       Al238   1.790       .  S
O235        C236   1.276       .  A
C236        C493   1.495       .  S
C237        C566   1.496       .  S
C240        C773   1.507   1_655  S
C241        O242   1.255       .  A
C241        C524   1.490       .  S
O243        C258   1.265       .  A
O243       Al251   1.900       .  S
C244        O254   1.257       .  A
C244        O245   1.274       .  A
C244        C451   1.478       .  S
O245       Al247   1.935       .  S
O246        C248   1.257       .  A
O246       Al247   1.916       .  S
Al247       O255   1.918       .  S
Al247       O257   1.949       .  S
Al247       O256   1.794       .  S
C248        O261   1.248       .  A
C248        C538   1.484       .  S
O249        C259   1.253       .  A
O249       Al251   1.894       .  S
O250        C263   1.254       .  A
O250       Al260   1.873       .  S
Al251       O264   1.878       .  S
Al251       O261   1.872       .  S
Al251       O256   1.789       .  S
O252        C259   1.254       .  A
O252       Al260   1.878       .  S
O253        C262   1.264       .  A
O253       Al260   1.916       .  S
O254       Al260   1.883       .  S
O255        C262   1.259       .  A
O256       Al260   1.783       .  S
O257        C258   1.277       .  A
C258        C496   1.490       .  S
C259        C465   1.476       .  S
C262        C633   1.508   1_655  S
C263        O264   1.256       .  A
C263        C440   1.467       .  S
O265        C280   1.259       .  A
O265       Al273   1.882       .  S
C266        O276   1.274       .  A
C266        O267   1.263       .  A
C266        C409   1.486       .  S
O267       Al269   1.895       .  S
O268        C270   1.259       .  A
O268       Al269   1.909       .  S
Al269       O277   1.927       .  S
Al269       O279   1.901       .  S
Al269       O278   1.797       .  S
C270        O283   1.256       .  A
C270        C384   1.497       .  S
O271        C281   1.254       .  A
O271       Al273   1.908       .  S
O272        C285   1.277       .  A
O272       Al282   1.944       .  S
Al273       O286   1.912       .  S
Al273       O283   1.887       .  S
Al273       O278   1.786       .  S
O274        C281   1.253       .  A
O274       Al282   1.903       .  S
O275        C284   1.253       .  A
O275       Al282   1.905       .  S
O276       Al282   1.917       .  S
O277        C284   1.263       .  A
O278       Al282   1.796       .  S
O279        C280   1.260       .  A
C280        C423   1.480       .  S
C281        C468   1.497       .  S
C284        C941   1.503   1_545  S
C285        O286   1.268       .  A
C285        C395   1.494       .  S
O287        C302   1.255       .  A
O287       Al295   1.855       .  S
C288        O298   1.275       .  A
C288        O289   1.266       .  A
C288        C437   1.477       .  S
O289       Al291   1.884       .  S
O290        C292   1.258       .  A
O290       Al291   1.912       .  S
Al291       O299   1.918       .  S
Al291       O301   1.899       .  S
Al291       O300   1.797       .  S
C292        O305   1.253       .  A
C292        C482   1.487       .  S
O293        C303   1.247       .  A
O293       Al295   1.884       .  S
O294        C307   1.278       .  A
O294       Al304   1.943       .  S
Al295       O308   1.923       .  S
Al295       O305   1.882       .  S
Al295       O300   1.781       .  S
O296        C303   1.254       .  A
O296       Al304   1.921       .  S
O297        C306   1.254   1_545  A
O297       Al304   1.916       .  S
O298       Al304   1.911       .  S
O299        C306   1.259   1_545  A
O300       Al304   1.799       .  S
O301        C302   1.259       .  A
C302        C454   1.485       .  S
C303        C367   1.501       .  S
C306        C706   1.509       .  S
C307        O308   1.272       .  A
C307        C398   1.495       .  S
O309        C324   1.258       .  A
O309       Al317   1.874       .  S
C310        O320   1.263       .  A
C310        O311   1.274       .  A
C310        C619   1.476       .  S
O311       Al313   1.944       .  S
O312        C314   1.256       .  A
O312       Al313   1.904       .  S
Al313       O321   1.925       .  S
Al313       O323   1.949       .  S
Al313       O322   1.807       .  S
C314        O327   1.257       .  A
C314        C381   1.493       .  S
O315        C325   1.260       .  A
O315       Al317   1.923       .  S
O316        C329   1.268       .  A
O316       Al326   1.914       .  S
Al317       O330   1.903       .  S
Al317       O327   1.891       .  S
Al317       O322   1.786       .  S
O318        C325   1.252       .  A
O318       Al326   1.888       .  S
O319        C328   1.248       .  A
O319       Al326   1.864       .  S
O320       Al326   1.870       .  S
O321        C328   1.258       .  A
O322       Al326   1.792       .  S
O323        C324   1.269       .  A
C324        C353   1.490       .  S
C325        C552   1.509       .  S
C328        C832   1.500       .  S
C329        O330   1.266       .  A
C329        C605   1.494       .  S
O331        C346   1.265       .  A
O331       Al339   1.882       .  S
C332        O342   1.257       .  A
C332        O333   1.264       .  A
C332        C426   1.472       .  S
O333       Al335   1.912       .  S
O334        C336   1.252       .  A
O334       Al335   1.900       .  S
Al335       O343   1.914       .  S
Al335       O345   1.953       .  S
Al335       O344   1.802       .  S
C336        O349   1.247       .  A
C336        C594   1.496       .  S
O337        C347   1.267       .  A
O337       Al339   1.913       .  S
O338        C351   1.264       .  A
O338       Al348   1.922       .  S
Al339       O352   1.869       .  S
Al339       O349   1.878       .  S
Al339       O344   1.790       .  S
O340        C347   1.263       .  A
O340       Al348   1.910       .  S
O341        C350   1.258       .  A
O341       Al348   1.890       .  S
O342       Al348   1.868       .  S
O343        C350   1.259       .  A
O344       Al348   1.796       .  S
O345        C346   1.275       .  A
C346        C356   1.489       .  S
C347        C370   1.490       .  S
C350        C650   1.496       .  S
C351        O352   1.251       .  A
C351        C412   1.502       .  S
C353        C354   1.410       .  A
C353       C1382   1.412       .  A
C354       C1379   1.414       .  A
C354        C359   1.444       .  S
C355        C356   1.412       .  A
C355       C1378   1.414   1_554  A
C355       C1386   1.451   1_554  S
C356        C357   1.413       .  A
C357        C358   1.414       .  A
C357        C360   1.449       .  S
C358       C1377   1.412   1_554  A
C358        C361   1.449       .  S
C359        N366   1.155       .  T
C360        N365   1.157       .  T
C361        N363   1.157       .  T
C362       C1379   1.451       .  S
C362        N364   1.157       .  T
C367        C368   1.423       .  A
C367        C372   1.418       .  A
C368        C369   1.413       .  A
C368        C373   1.452       .  S
C369        C370   1.410       .  A
C369        C376   1.452       .  S
C370        C371   1.416       .  A
C371        C372   1.412       .  A
C371        C374   1.453       .  S
C372        C375   1.452       .  S
C373        N380   1.157       .  T
C374        N379   1.157       .  T
C375        N377   1.158       .  T
C376        N378   1.157       .  T
C381        C382   1.412       .  A
C381        C386   1.405       .  A
C382        C383   1.418       .  A
C382        C387   1.449       .  S
C383        C384   1.420       .  A
C383        C390   1.451       .  S
C384        C385   1.418       .  A
C385        C386   1.407       .  A
C385        C388   1.450       .  S
C386        C389   1.447       .  S
C387        N394   1.158       .  T
C388        N393   1.157       .  T
C389        N391   1.156       .  T
C390        N392   1.157       .  T
C395        C396   1.414       .  A
C395        C400   1.413       .  A
C396        C397   1.422       .  A
C396        C401   1.449       .  S
C397        C398   1.413       .  A
C397        C404   1.449       .  S
C398        C399   1.412       .  A
C399        C400   1.414       .  A
C399        C402   1.450       .  S
C400        C403   1.449       .  S
C401        N408   1.157       .  T
C402        N407   1.157       .  T
C403        N405   1.157       .  T
C404        N406   1.157   1_545  T
C409        C410   1.418       .  A
C409        C414   1.408       .  A
C410       C1435   1.410       .  A
C410        C415   1.452       .  S
C411        C412   1.412   1_556  A
C411       C1434   1.410       .  A
C411        C418   1.447   1_556  S
C412       C1437   1.429   1_554  A
C413        C414   1.408       .  A
C413       C1436   1.429       .  A
C413        C416   1.455       .  S
C414        C417   1.454       .  S
C415        N422   1.157       .  T
C416        N421   1.158       .  T
C417        N419   1.157       .  T
C418        N420   1.156       .  T
C423        C424   1.418       .  A
C423        C428   1.411       .  A
C424        C425   1.405       .  A
C424        C429   1.453       .  S
C425        C426   1.406       .  A
C425        C432   1.452       .  S
C426        C427   1.412       .  A
C427        C428   1.411       .  A
C427        C430   1.452       .  S
C428        C431   1.447       .  S
C429        N436   1.157       .  T
C430        N435   1.157       .  T
C431        N433   1.156       .  T
C432        N434   1.157       .  T
C437        C438   1.412       .  A
C437        C442   1.420       .  A
C438        C439   1.405       .  A
C438        C443   1.450       .  S
C439       C1464   1.414       .  A
C439       C1470   1.453       .  S
C440       C1463   1.414       .  A
C440       C1465   1.406       .  A
C441        C442   1.404       .  A
C441       C1464   1.406       .  A
C441        C444   1.453       .  S
C442        C445   1.451       .  S
C443        N450   1.157       .  T
C444       N1473   1.157       .  T
C445        N447   1.157       .  T
C446       C1463   1.453       .  S
C446        N448   1.157       .  T
N449       C1468   1.157       .  T
C451        C452   1.409       .  A
C451        C456   1.416       .  A
C452        C453   1.415       .  A
C452        C457   1.450       .  S
C453        C454   1.420       .  A
C453        C460   1.449       .  S
C454        C455   1.413       .  A
C455        C456   1.395       .  A
C455        C458   1.455       .  S
C456        C459   1.448       .  S
C457        N464   1.157       .  T
C458        N463   1.157       .  T
C459        N461   1.157       .  T
C460        N462   1.158       .  T
C465        C466   1.405       .  A
C465        C470   1.410       .  A
C466        C467   1.410       .  A
C466        C471   1.452       .  S
C467        C468   1.421       .  A
C467        C474   1.451       .  S
C468        C469   1.419       .  A
C469        C470   1.413       .  A
C469        C472   1.451       .  S
C470        C473   1.453       .  S
C471        N478   1.157       .  T
C472        N477   1.157       .  T
C473        N475   1.158       .  T
C474        N476   1.158       .  T
C479        C480   1.418       .  A
C479        C484   1.420       .  A
C480        C481   1.411       .  A
C480        C485   1.453       .  S
C481        C482   1.410       .  A
C481        C488   1.446       .  S
C482        C483   1.412       .  A
C483        C484   1.412       .  A
C483        C486   1.450       .  S
C484        C487   1.452       .  S
C485        N492   1.158       .  T
C486        N491   1.157       .  T
C487        N489   1.158       .  T
C488        N490   1.155       .  T
C493        C494   1.412       .  A
C493        C498   1.412       .  A
C494        C495   1.415       .  A
C494        C499   1.450       .  S
C495       C1520   1.412   1_554  A
C495        C502   1.450       .  S
C496        C497   1.414       .  A
C496       C1519   1.412       .  A
C497       C1522   1.421       .  A
C497        C500   1.449       .  S
C498       C1521   1.421   1_554  A
C498       C1525   1.449   1_554  S
C499        N506   1.157       .  T
C500        N505   1.157       .  T
C501       C1522   1.449       .  S
C501        N503   1.157       .  T
C502        N504   1.157       .  T
C507        C508   1.420       .  A
C507        C512   1.415       .  A
C508        C509   1.409       .  A
C508        C513   1.451       .  S
C509        C510   1.410       .  A
C509        C516   1.453       .  S
C510        C511   1.413       .  A
C511        C512   1.407       .  A
C511        C514   1.454       .  S
C512        C515   1.450       .  S
C513        N520   1.157       .  T
C514        N519   1.157       .  T
C515        N517   1.156       .  T
C516        N518   1.157       .  T
C521        C522   1.413       .  A
C521        C526   1.419       .  A
C522       C1547   1.419       .  A
C522        C527   1.450       .  S
C523        C524   1.419       .  A
C523       C1546   1.419   1_554  A
C523        C530   1.450       .  S
C524       C1549   1.412   1_554  A
C525        C526   1.399       .  A
C525       C1548   1.412       .  A
C525        C528   1.453       .  S
C526        C529   1.451       .  S
C527        N534   1.157       .  T
C528        N533   1.157       .  T
C529        N531   1.157       .  T
C530        N532   1.157       .  T
C535        C536   1.408       .  A
C535        C540   1.407       .  A
C536        C537   1.408       .  A
C536        C541   1.450       .  S
C537        C538   1.414       .  A
C537        C544   1.452       .  S
C538        C539   1.420       .  A
C539        C540   1.407       .  A
C539        C542   1.452       .  S
C540        C543   1.454       .  S
C541        N548   1.157       .  T
C542        N547   1.158       .  T
C543        N545   1.157       .  T
C544        N546   1.157       .  T
C549        C550   1.423       .  A
C549        C554   1.421       .  A
C550        C551   1.415       .  A
C550        C555   1.451       .  S
C551        C552   1.413       .  A
C551        C558   1.449       .  S
C552        C553   1.423       .  A
C553        C554   1.412       .  A
C553        C556   1.455       .  S
C554        C557   1.453       .  S
C555        N562   1.157       .  T
C556        N561   1.158       .  T
C557        N559   1.158       .  T
C558        N560   1.158       .  T
C563        C564   1.418       .  A
C563        C568   1.421       .  A
C564        C565   1.410       .  A
C564        C569   1.453       .  S
C565        C566   1.411       .  A
C565        C572   1.442       .  S
C566        C567   1.412       .  A
C567        C568   1.417       .  A
C567        C570   1.452       .  S
C568        C571   1.447       .  S
C569        N576   1.158       .  T
C570        N575   1.157       .  T
C571        N573   1.157       .  T
C572        N574   1.154       .  T
C577        C578   1.414       .  A
C577        C582   1.416       .  A
C578        C579   1.422       .  A
C578        C583   1.449       .  S
C579        C580   1.415       .  A
C579        C586   1.449       .  S
C580        C581   1.411       .  A
C581        C582   1.416       .  A
C581        C584   1.447       .  S
C582        C585   1.451       .  S
C583        N590   1.157       .  T
C584        N589   1.156       .  T
C585        N587   1.157       .  T
C586        N588   1.157       .  T
C591        C592   1.417       .  A
C591        C596   1.422       .  A
C592        C593   1.411       .  A
C592        C597   1.453       .  S
C593        C594   1.419       .  A
C593        C600   1.453       .  S
C594        C595   1.415       .  A
C595        C596   1.412       .  A
C595        C598   1.452       .  S
C596        C599   1.454       .  S
C597        N604   1.158       .  T
C598        N603   1.158       .  T
C599        N601   1.158       .  T
C600        N602   1.157       .  T
C605       C1630   1.417       .  A
C605       C1634   1.421       .  A
C606        C607   1.416       .  A
C606       C1629   1.417       .  A
C606       C1635   1.449       .  S
C607        C608   1.415       .  A
C607        C614   1.452       .  S
C608        C609   1.402       .  A
C609        C610   1.402       .  A
C609        C612   1.448       .  S
C610       C1629   1.421       .  A
C610        C613   1.453       .  S
C611       C1630   1.449       .  S
C611        N618   1.157       .  T
C612        N617   1.156       .  T
C613       N1639   1.157   1_554  T
C614        N616   1.158       .  T
N615       C1637   1.157       .  T
C619        C620   1.412       .  A
C619        C624   1.403       .  A
C620        C621   1.414       .  A
C620        C625   1.452       .  S
C621        C622   1.415       .  A
C621        C628   1.449       .  S
C622        C623   1.426       .  A
C623        C624   1.408       .  A
C623        C626   1.453       .  S
C624        C627   1.452       .  S
C625        N632   1.157       .  T
C626        N631   1.157       .  T
C627        N629   1.157       .  T
C628        N630   1.157       .  T
C633        C634   1.420       .  A
C633        C638   1.419       .  A
C634        C635   1.421       .  A
C634        C639   1.451       .  S
C635        C636   1.418       .  A
C635        C642   1.451       .  S
C636        C637   1.421       .  A
C637        C638   1.416       .  A
C637        C640   1.453   1_545  S
C638        C641   1.453   1_455  S
C639        N646   1.158       .  T
C640        N645   1.158       .  T
C641        N643   1.157       .  T
C642        N644   1.157       .  T
C647        C648   1.419       .  A
C647        C652   1.415       .  A
C648        C649   1.406       .  A
C648        C653   1.446       .  S
C649        C650   1.401       .  A
C649        C656   1.448       .  S
C650        C651   1.419       .  A
C651        C652   1.425       .  A
C651        C654   1.449       .  S
C652        C655   1.449       .  S
C653        N660   1.156   1_545  T
C654        N659   1.157       .  T
C655        N657   1.157       .  T
C656        N658   1.156       .  T
C661        C662   1.415   1_545  A
C661        C666   1.416       .  A
C662        C663   1.419       .  A
C662        C667   1.449       .  S
C663        C664   1.414       .  A
C663        C670   1.448       .  S
C664        C665   1.410   1_565  A
C665        C666   1.418       .  A
C665        C668   1.451       .  S
C666        C669   1.444       .  S
C667        N674   1.157       .  T
C668        N673   1.157       .  T
C669        N671   1.155       .  T
C670        N672   1.156       .  T
C675        C676   1.410       .  A
C675        C680   1.416       .  A
C676        C677   1.419       .  A
C676        C681   1.451       .  S
C677        C678   1.426       .  A
C677        C684   1.451       .  S
C678        C679   1.424       .  A
C679        C680   1.413       .  A
C679        C682   1.454       .  S
C680        C683   1.452       .  S
C681        N688   1.157       .  T
C682        N687   1.158   1_655  T
C683        N685   1.157       .  T
C684        N686   1.157       .  T
C689        C690   1.424       .  A
C689        C694   1.426       .  A
C690        C691   1.411       .  A
C690        C695   1.452       .  S
C691        C692   1.409       .  A
C691        C698   1.454       .  S
C692        C693   1.408       .  A
C693        C694   1.414       .  A
C693        C696   1.452       .  S
C694        C697   1.452       .  S
C695        N702   1.158   1_455  T
C696        N701   1.158       .  T
C697        N699   1.157       .  T
C698        N700   1.157       .  T
C703        C704   1.410       .  A
C703        C708   1.423       .  A
C704        C705   1.423       .  A
C704        C709   1.449       .  S
C705        C706   1.425       .  A
C705        C712   1.450       .  S
C706        C707   1.409       .  A
C707        C708   1.417       .  A
C707        C710   1.451       .  S
C708        C711   1.448       .  S
C709        N716   1.157       .  T
C710        N715   1.157       .  T
C711        N713   1.157       .  T
C712        N714   1.158       .  T
C717        C718   1.406       .  A
C717        C722   1.406       .  A
C718        C719   1.414       .  A
C718        C723   1.452       .  S
C719        C720   1.426       .  A
C719        C726   1.451       .  S
C720        C721   1.427       .  A
C721        C722   1.414       .  A
C721        C724   1.452       .  S
C722        C725   1.452       .  S
C723        N730   1.157       .  T
C724        N729   1.158       .  T
C725        N727   1.157       .  T
C726        N728   1.158       .  T
C731        C736   1.414       .  A
C731       C1756   1.413       .  A
C732        C733   1.420       .  A
C732       C1755   1.413   1_554  A
C732        C737   1.443       .  S
C733        C734   1.412   1_655  A
C733        C740   1.450       .  S
C734        C735   1.411   1_554  A
C735       C1760   1.417   1_455  A
C735       C1762   1.451       .  S
C736       C1759   1.417   1_655  A
C736        C739   1.445       .  S
C737        N744   1.155       .  T
C738       C1759   1.451       .  S
C738        N743   1.157       .  T
C739        N741   1.156       .  T
C740        N742   1.157       .  T
C745        C746   1.418       .  A
C745        C750   1.429       .  A
C746        C747   1.408       .  A
C746        C751   1.449       .  S
C747        C748   1.409       .  A
C747        C754   1.453       .  S
C748        C749   1.401       .  A
C749        C750   1.407       .  A
C749        C752   1.453       .  S
C750        C753   1.453       .  S
C751        N758   1.156       .  T
C752        N757   1.157       .  T
C753        N755   1.158       .  T
C754        N756   1.157       .  T
C759        C764   1.420   1_554  A
C759       C1784   1.410   1_554  A
C760        C761   1.412       .  A
C760       C1783   1.410       .  A
C760       C1789   1.451       .  S
C761        C762   1.415       .  A
C761        C768   1.448       .  S
C762        C763   1.409       .  A
C763       C1788   1.408       .  A
C763        C766   1.451       .  S
C764       C1787   1.408       .  A
C764        C767   1.453   1_556  S
C765       C1784   1.451   1_554  S
C765        N772   1.157       .  T
C766        N771   1.157       .  T
C767        N769   1.157       .  T
C768        N770   1.156   1_565  T
C773        C774   1.409       .  A
C773        C778   1.427       .  A
C774        C775   1.416       .  A
C774        C779   1.452       .  S
C775        C776   1.418       .  A
C775        C782   1.445       .  S
C776        C777   1.407       .  A
C777        C778   1.421       .  A
C777        C780   1.450       .  S
C778        C781   1.450       .  S
C779        N786   1.157       .  T
C780        N785   1.157       .  T
C781        N783   1.157       .  T
C782        N784   1.156       .  T
C787        C788   1.411       .  A
C787        C792   1.424       .  A
C788        C789   1.413       .  A
C788        C793   1.452       .  S
C789        C790   1.426       .  A
C789        C796   1.453       .  S
C790        C791   1.411       .  A
C791        C792   1.419       .  A
C791        C794   1.451       .  S
C792        C795   1.450       .  S
C793        N800   1.157       .  T
C794        N799   1.157       .  T
C795        N797   1.157   1_455  T
C796        N798   1.157       .  T
C801        C802   1.417       .  A
C801        C806   1.423       .  A
C802        C803   1.411       .  A
C802        C807   1.450       .  S
C803       C1828   1.408       .  A
C803       C1834   1.449   1_554  S
C804       C1827   1.408       .  A
C804       C1829   1.398       .  A
C805        C806   1.405       .  A
C805       C1828   1.398       .  A
C805        C808   1.449       .  S
C806        C809   1.452       .  S
C807        N814   1.158       .  T
C808        N813   1.157   1_455  T
C809        N811   1.157       .  T
C810       C1827   1.449       .  S
C810        N812   1.157       .  T
C815        C816   1.414       .  A
C815        C820   1.418       .  A
C816        C817   1.414       .  A
C816        C821   1.452       .  S
C817        C818   1.423       .  A
C817        C824   1.453       .  S
C818        C819   1.423       .  A
C819        C820   1.408       .  A
C819        C822   1.454       .  S
C820        C823   1.456       .  S
C821        N828   1.158       .  T
C822        N827   1.159       .  T
C823        N825   1.157       .  T
C824        N826   1.157       .  T
C829        C830   1.421       .  A
C829        C834   1.414       .  A
C830        C831   1.406       .  A
C830        C835   1.455       .  S
C831        C832   1.417       .  A
C831        C838   1.455       .  S
C832        C833   1.420       .  A
C833        C834   1.422       .  A
C833        C836   1.450       .  S
C834        C837   1.450       .  S
C835        N842   1.157       .  T
C836        N841   1.157       .  T
C837        N839   1.157       .  T
C838        N840   1.157       .  T
C843        C844   1.413       .  A
C843        C848   1.410       .  A
C844        C845   1.402       .  A
C844        C849   1.456       .  S
C845        C846   1.416       .  A
C845        C852   1.447       .  S
C846        C847   1.423       .  A
C847        C848   1.413       .  A
C847        C850   1.452       .  S
C848        C851   1.452       .  S
C849        N856   1.158       .  T
C850        N855   1.158       .  T
C851        N853   1.157       .  T
C852        N854   1.154       .  T
C857        C858   1.413       .  A
C857        C862   1.414       .  A
C858        C859   1.415       .  A
C858        C863   1.450       .  S
C859        C860   1.416       .  A
C859        C866   1.451       .  S
C860        C861   1.415       .  A
C861        C862   1.417       .  A
C861        C864   1.450       .  S
C862        C865   1.450       .  S
C863        N870   1.157       .  T
C864        N869   1.157       .  T
C865        N867   1.158       .  T
C866        N868   1.158       .  T
C871        C872   1.426       .  A
C871        C876   1.411       .  A
C872        C873   1.419       .  A
C872        C877   1.450       .  S
C873        C874   1.406       .  A
C873        C880   1.449       .  S
C874        C875   1.418       .  A
C875        C876   1.417       .  A
C875        C878   1.449       .  S
C876        C879   1.450       .  S
C877        N884   1.157       .  T
C878        N883   1.157       .  T
C879        N881   1.157       .  T
C880        N882   1.157       .  T
C885        C886   1.423   1_554  A
C885       C1914   1.422   1_554  A
C886       C1911   1.416       .  A
C886        C891   1.450   1_556  S
C887        C888   1.410       .  A
C887       C1910   1.416       .  A
C887        C894   1.451       .  S
C888        C889   1.405       .  A
C889        C890   1.398       .  A
C889        C892   1.446       .  S
C890       C1909   1.422       .  A
C890        C893   1.457       .  S
C891        N898   1.158       .  T
C892        N897   1.153       .  T
C893       N1919   1.158       .  T
C894        N896   1.157       .  T
N895       C1917   1.158       .  T
C899        C900   1.421       .  A
C899        C904   1.406       .  A
C900        C901   1.412       .  A
C900        C905   1.451       .  S
C901        C902   1.409       .  A
C901        C908   1.451       .  S
C902        C903   1.424       .  A
C903        C904   1.397       .  A
C903        C906   1.455       .  S
C904        C907   1.455       .  S
C905        N912   1.157       .  T
C906        N911   1.157       .  T
C907        N909   1.157       .  T
C908        N910   1.157       .  T
C913        C914   1.417       .  A
C913        C918   1.410       .  A
C914        C915   1.418       .  A
C914        C919   1.452       .  S
C915        C916   1.415       .  A
C915        C922   1.449       .  S
C916        C917   1.417       .  A
C917        C918   1.411       .  A
C917        C920   1.451       .  S
C918        C921   1.446       .  S
C919        N926   1.158       .  T
C920        N925   1.157       .  T
C921        N923   1.155       .  T
C922        N924   1.157       .  T
C927        C928   1.416       .  A
C927        C932   1.422       .  A
C928        C929   1.414       .  A
C928        C933   1.449       .  S
C929        C930   1.408       .  A
C929        C936   1.447       .  S
C930        C931   1.410       .  A
C931        C932   1.416       .  A
C931        C934   1.452       .  S
C932        C935   1.451       .  S
C933        N940   1.158       .  T
C934        N939   1.157       .  T
C935        N937   1.157       .  T
C936        N938   1.157       .  T
C941        C942   1.406       .  A
C941        C946   1.423       .  A
C942        C943   1.416       .  A
C942        C947   1.450       .  S
C943        C944   1.420       .  A
C943        C950   1.446       .  S
C944        C945   1.408       .  A
C945        C946   1.419       .  A
C945        C948   1.450       .  S
C946        C949   1.449       .  S
C947        N954   1.157       .  T
C948        N953   1.157       .  T
C949        N951   1.157       .  T
C950        N952   1.156       .  T
C955        C956   1.413       .  A
C955        C960   1.419       .  A
C956        C957   1.409       .  A
C956        C961   1.452       .  S
C957        C958   1.421       .  A
C957        C964   1.453       .  S
C958        C959   1.416       .  A
C959        C960   1.416       .  A
C959        C962   1.452       .  S
C960        C963   1.451       .  S
C961        N968   1.157       .  T
C962        N967   1.158       .  T
C963        N965   1.157       .  T
C964        N966   1.157       .  T
C969        C970   1.412       .  A
C969        C974   1.412       .  A
C970       C1995   1.416       .  A
C970        C975   1.450       .  S
C971        C972   1.410       .  A
C971       C1994   1.416       .  A
C971        C978   1.449       .  S
C972        C973   1.413   1_554  A
C973       C1998   1.417       .  A
C973        C976   1.449       .  S
C974       C1997   1.417       .  A
C974        C977   1.448       .  S
C975        N982   1.157       .  T
C976        N981   1.157       .  T
C977        N979   1.157       .  T
C978        N980   1.157       .  T
C983        C984   1.417       .  A
C983        C988   1.414       .  A
C984        C985   1.409       .  A
C984        C989   1.452       .  S
C985        C986   1.410       .  A
C985        C992   1.453       .  S
C986        C987   1.412       .  A
C987        C988   1.411       .  A
C987        C990   1.450       .  S
C988        C991   1.452       .  S
C989        N996   1.157       .  T
C990        N995   1.157       .  T
C991        N993   1.158       .  T
C992        N994   1.158       .  T
C997        C998   1.421       .  A
C997       C1002   1.415       .  A
C998        C999   1.405       .  A
C998       C1003   1.451       .  S
C999       C1000   1.397       .  A
C999       C1006   1.447       .  S
C1000      C1001   1.400       .  A
C1001      C1002   1.400       .  A
C1001      C1004   1.448       .  S
C1002      C1005   1.451       .  S
C1003      N1010   1.157       .  T
C1004      N1009   1.157       .  T
C1005      N1007   1.157       .  T
C1006      N1008   1.157   1_565  T
C1011      C1040   1.475   1_554  S
C1011      C1012   1.405       .  A
C1011      C1016   1.412       .  A
C1012      C1013   1.396       .  A
C1012      C1017   1.453       .  S
C1013      C1014   1.429       .  A
C1013      C1020   1.455       .  S
C1014      C1015   1.421       .  A
C1015      C1016   1.417       .  A
C1015      C1018   1.450       .  S
C1016      C2043   1.451   1_554  S
C1017      N1024   1.156       .  T
C1018      N1023   1.157   1_565  T
C1019      C2040   1.451       .  S
C1019      N1021   1.157       .  T
C1020      N1022   1.158       .  T
O1025      C1040   1.262       .  A
O1025     Al1033   1.899       .  S
C1026      O1036   1.267       .  A
C1026      O1027   1.259       .  A
C1026      C2021   1.474       .  S
O1027     Al1029   1.864       .  S
O1028      C1030   1.261       .  A
O1028     Al1029   1.922       .  S
Al1029     O1037   1.916       .  S
Al1029     O1039   1.904       .  S
Al1029     O1038   1.791       .  S
C1030      O1043   1.260       .  A
C1030      C2010   1.479       .  S
O1031      C1041   1.253       .  A
O1031     Al1033   1.897       .  S
O1032      C1045   1.272       .  A
O1032     Al1042   1.958       .  S
Al1033     O1046   1.884       .  S
Al1033     O1043   1.899       .  S
Al1033     O1038   1.781       .  S
O1034      C1041   1.255       .  A
O1034     Al1042   1.901       .  S
O1035      C1044   1.262       .  A
O1035     Al1042   1.920       .  S
O1036     Al1042   1.908       .  S
O1037      C1044   1.259       .  A
O1038     Al1042   1.787       .  S
O1039      C1040   1.266       .  A
C1041      C1979   1.494       .  S
C1044      C1968   1.498       .  S
C1045      O1046   1.263       .  A
C1045      C1993   1.492       .  S
O1047      C1062   1.249       .  A
O1047     Al1055   1.842       .  S
C1048      O1058   1.275       .  A
C1048      O1049   1.266       .  A
C1048      C1923   1.474       .  S
O1049     Al1051   1.896       .  S
O1050      C1052   1.261       .  A
O1050     Al1051   1.918       .  S
Al1051     O1059   1.917       .  S
Al1051     O1061   1.911       .  S
Al1051     O1060   1.803       .  S
C1052      O1065   1.257       .  A
C1052      C1937   1.496       .  S
O1053      C1063   1.246       .  A
O1053     Al1055   1.877       .  S
O1054      C1067   1.274       .  A
O1054     Al1064   1.930       .  S
Al1055     O1068   1.925       .  S
Al1055     O1065   1.892       .  S
Al1055     O1060   1.786       .  S
O1056      C1063   1.256       .  A
O1056     Al1064   1.936       .  S
O1057      C1066   1.252       .  A
O1057     Al1064   1.905       .  S
O1058     Al1064   1.897       .  S
O1059      C1066   1.258       .  A
O1060     Al1064   1.802       .  S
O1061      C1062   1.259       .  A
C1062      C1909   1.494       .  S
C1063      C1951   1.500       .  S
C1066      C1895   1.506       .  S
C1067      O1068   1.273       .  A
C1067      C1996   1.491       .  S
O1069      C1084   1.262       .  A
O1069     Al1077   1.885       .  S
C1070      O1080   1.258       .  A
C1070      O1071   1.264       .  A
C1070      C1912   1.481       .  S
O1071     Al1073   1.925       .  S
O1072      C1074   1.255       .  A
O1072     Al1073   1.901       .  S
Al1073     O1081   1.916       .  S
Al1073     O1083   1.948       .  S
Al1073     O1082   1.806       .  S
C1074      O1087   1.248       .  A
C1074      C1867   1.479       .  S
O1075      C1085   1.264       .  A
O1075     Al1077   1.919       .  S
O1076      C1089   1.264       .  A
O1076     Al1086   1.912       .  S
Al1077     O1090   1.851       .  S
Al1077     O1087   1.857       .  S
Al1077     O1082   1.788       .  S
O1078      C1085   1.259       .  A
O1078     Al1086   1.895       .  S
O1079      C1088   1.257       .  A
O1079     Al1086   1.882       .  S
O1080     Al1086   1.862       .  S
O1081      C1088   1.262       .  A
O1082     Al1086   1.789       .  S
O1083      C1084   1.271       .  A
C1084      C1881   1.494       .  S
C1085      C1982   1.501       .  S
C1088      C1853   1.500       .  S
C1089      O1090   1.251       .  A
C1089      C1926   1.482       .  S
O1091      C1106   1.264       .  A
O1091     Al1099   1.883       .  S
C1092      O1102   1.255       .  A
C1092      O1093   1.267       .  A
C1092      C1825   1.489       .  S
O1093     Al1095   1.927       .  S
O1094      C1096   1.258       .  A
O1094     Al1095   1.919       .  S
Al1095     O1103   1.923       .  S
Al1095     O1105   1.958       .  S
Al1095     O1104   1.795       .  S
C1096      O1109   1.254       .  A
C1096      C1940   1.499       .  S
O1097      C1107   1.265       .  A
O1097     Al1099   1.906       .  S
O1098      C1111   1.269       .  A
O1098     Al1108   1.929       .  S
Al1099     O1112   1.896       .  S
Al1099     O1109   1.901       .  S
Al1099     O1104   1.787       .  S
O1100      C1107   1.261       .  A
O1100     Al1108   1.898       .  S
O1101      C1110   1.261       .  A
O1101     Al1108   1.918       .  S
O1102     Al1108   1.864       .  S
O1103      C1110   1.263       .  A
O1104     Al1108   1.790       .  S
O1105      C1106   1.275       .  A
C1106      C1884   1.498       .  S
C1107      C1839   1.494       .  S
C1110      C1800   1.500       .  S
C1111      O1112   1.259       .  A
C1111      C1814   1.503       .  S
O1113      C1128   1.259       .  A
O1113     Al1121   1.877       .  S
C1114      O1124   1.272       .  A
C1114      O1115   1.264       .  A
C1114      C1769   1.496       .  S
O1115     Al1117   1.888       .  S
O1116      C1118   1.256       .  A
O1116     Al1117   1.899       .  S
Al1117     O1125   1.939       .  S
Al1117     O1127   1.910       .  S
Al1117     O1126   1.791       .  S
C1118      O1131   1.254       .  A
C1118      C1741   1.481       .  S
O1119      C1129   1.252       .  A
O1119     Al1121   1.895       .  S
O1120      C1133   1.276   1_655  A
O1120     Al1130   1.937   1_655  S
Al1121     O1134   1.919       .  S
Al1121     O1131   1.895       .  S
Al1121     O1126   1.785       .  S
O1122      C1129   1.254       .  A
O1122     Al1130   1.903       .  S
O1123      C1132   1.255       .  A
O1123     Al1130   1.908   1_655  S
O1124     Al1130   1.915       .  S
O1125      C1132   1.266   1_455  A
O1126     Al1130   1.795       .  S
O1127      C1128   1.264       .  A
C1128      C1783   1.487       .  S
C1129      C1842   1.505       .  S
C1132      C1727   1.509       .  S
C1133      O1134   1.268       .  A
C1133      C1758   1.493       .  S
O1135      C1150   1.260       .  A
O1135     Al1143   1.894       .  S
C1136      O1146   1.269       .  A
C1136      O1137   1.259       .  A
C1136      C1811   1.502       .  S
O1137     Al1139   1.904       .  S
O1138      C1140   1.260       .  A
O1138     Al1139   1.883       .  S
Al1139     O1147   1.894       .  S
Al1139     O1149   1.902       .  S
Al1139     O1148   1.787       .  S
C1140      O1153   1.259       .  A
C1140      C1870   1.493       .  S
O1141      C1151   1.258       .  A
O1141     Al1143   1.891       .  S
O1142      C1155   1.273   1_655  A
O1142     Al1152   1.956   1_655  S
Al1143     O1156   1.904       .  S
Al1143     O1153   1.905       .  S
Al1143     O1148   1.782       .  S
O1144      C1151   1.262       .  A
O1144     Al1152   1.921       .  S
O1145      C1154   1.265       .  A
O1145     Al1152   1.931   1_655  S
O1146     Al1152   1.926       .  S
O1147      C1154   1.261   1_455  A
O1148     Al1152   1.793       .  S
O1149      C1150   1.256       .  A
C1150      C1828   1.470   1_556  S
C1151      C1713   1.510       .  S
C1154      C1702   1.515       .  S
C1155      O1156   1.261       .  A
C1155      C1755   1.501   1_455  S
O1157      C1172   1.263       .  A
O1157     Al1165   1.890       .  S
C1158      O1168   1.249       .  A
C1158      O1159   1.275       .  A
C1158      C2038   1.502       .  S
O1159     Al1161   1.971       .  S
O1160      C1162   1.258       .  A
O1160     Al1161   1.901       .  S
Al1161     O1169   1.930   1_565  S
Al1161     O1171   1.989       .  S
Al1161     O1170   1.775       .  S
C1162      O1175   1.263       .  A
C1162      C1744   1.511       .  S
O1163      C1173   1.262       .  A
O1163     Al1165   1.913       .  S
O1164      C1177   1.255       .  A
O1164     Al1174   1.878       .  S
Al1165     O1178   1.927       .  S
Al1165     O1175   1.927       .  S
Al1165     O1170   1.774       .  S
O1166      C1173   1.268       .  A
O1166     Al1174   1.950       .  S
O1167      C1176   1.262   1_565  A
O1167     Al1174   1.919       .  S
O1168     Al1174   1.826       .  S
O1169      C1176   1.267       .  A
O1170     Al1174   1.772       .  S
O1171      C1172   1.280       .  A
C1172      C1685   1.505   1_565  S
C1173      C1954   1.491       .  S
C1176      C1671   1.502       .  S
C1177      O1178   1.268       .  A
C1177      C2024   1.459       .  S
O1179      C1194   1.267       .  A
O1179     Al1187   1.914       .  S
C1180      O1190   1.264       .  A
C1180      O1181   1.270       .  A
C1180      C1786   1.483       .  S
O1181     Al1183   1.917       .  S
O1182      C1184   1.259       .  A
O1182     Al1183   1.922       .  S
Al1183     O1191   1.936   1_565  S
Al1183     O1193   1.942       .  S
Al1183     O1192   1.793       .  S
C1184      O1197   1.254       .  A
C1184      C2007   1.486       .  S
O1185      C1195   1.258       .  A
O1185     Al1187   1.902       .  S
O1186      C1199   1.259       .  A
O1186     Al1196   1.902       .  S
Al1187     O1200   1.870       .  S
Al1187     O1197   1.883       .  S
Al1187     O1192   1.781       .  S
O1188      C1195   1.257       .  A
O1188     Al1196   1.890       .  S
O1189      C1198   1.259   1_565  A
O1189     Al1196   1.905       .  S
O1190     Al1196   1.909       .  S
O1191      C1198   1.263       .  A
O1192     Al1196   1.785       .  S
O1193      C1194   1.276       .  A
C1194      C1688   1.495       .  S
C1195      C1716   1.482       .  S
C1198      C1660   1.509       .  S
C1199      O1200   1.255       .  A
C1199      C1772   1.466       .  S
O1201      C1216   1.255       .  A
O1201     Al1209   1.889       .  S
C1202      O1212   1.272       .  A
C1202      O1203   1.254       .  A
C1202      C1632   1.481       .  S
O1203     Al1205   1.862       .  S
O1204      C1206   1.267       .  A
O1204     Al1205   1.920       .  S
Al1205     O1213   1.911       .  S
Al1205     O1215   1.918       .  S
Al1205     O1214   1.803       .  S
C1206      O1219   1.265       .  A
C1206      C1615   1.499       .  S
O1207      C1217   1.251       .  A
O1207     Al1209   1.899       .  S
O1208      C1221   1.284       .  A
O1208     Al1218   1.985       .  S
Al1209     O1222   1.870       .  S
Al1209     O1219   1.890       .  S
Al1209     O1214   1.792       .  S
O1210      C1217   1.248       .  A
O1210     Al1218   1.899       .  S
O1211      C1220   1.255       .  A
O1211     Al1218   1.901       .  S
O1212     Al1218   1.934       .  S
O1213      C1220   1.258       .  A
O1214     Al1218   1.793       .  S
O1215      C1216   1.262       .  A
C1216      C1646   1.496       .  S
C1217      C1587   1.503       .  S
C1220      C1898   1.497       .  S
C1221      O1222   1.265       .  A
C1221      C1601   1.501       .  S
O1223      C1238   1.257       .  A
O1223     Al1231   1.890       .  S
C1224      O1234   1.272       .  A
C1224      O1225   1.258       .  A
C1224      C1545   1.491       .  S
O1225     Al1227   1.888       .  S
O1226      C1228   1.251       .  A
O1226     Al1227   1.867       .  S
Al1227     O1235   1.900       .  S
Al1227     O1237   1.864       .  S
Al1227     O1236   1.795       .  S
C1228      O1241   1.255       .  A
C1228      C1559   1.469       .  S
O1229      C1239   1.251       .  A
O1229     Al1231   1.893       .  S
O1230      C1243   1.278       .  A
O1230     Al1240   1.953       .  S
Al1231     O1244   1.904       .  S
Al1231     O1241   1.895       .  S
Al1231     O1236   1.798       .  S
O1232      C1239   1.254       .  A
O1232     Al1240   1.901       .  S
O1233      C1242   1.257       .  A
O1233     Al1240   1.917       .  S
O1234     Al1240   1.935       .  S
O1235      C1242   1.257       .  A
O1236     Al1240   1.799       .  S
O1237      C1238   1.251       .  A
C1238      C1534   1.475       .  S
C1239      C1573   1.510       .  S
C1242      C1699   1.496       .  S
C1243      O1244   1.266       .  A
C1243      C1604   1.497       .  S
O1245      C1260   1.276       .  A
O1245     Al1253   1.943       .  S
C1246      O1256   1.269       .  A
C1246      O1247   1.273       .  A
C1246      C1531   1.483       .  S
O1247     Al1249   1.908       .  S
O1248      C1250   1.255       .  A
O1248     Al1249   1.916       .  S
Al1249     O1257   1.911       .  S
Al1249     O1259   1.931       .  S
Al1249     O1258   1.796       .  S
C1250      O1263   1.251       .  A
C1250      C1503   1.499       .  S
O1251      C1261   1.260       .  A
O1251     Al1253   1.910       .  S
O1252      C1265   1.264       .  A
O1252     Al1262   1.920       .  S
Al1253     O1266   1.858       .  S
Al1253     O1263   1.892       .  S
Al1253     O1258   1.779       .  S
O1254      C1261   1.257       .  A
O1254     Al1262   1.897       .  S
O1255      C1264   1.262       .  A
O1255     Al1262   1.920       .  S
O1256     Al1262   1.907       .  S
O1257      C1264   1.255       .  A
O1258     Al1262   1.790       .  S
O1259      C1260   1.276       .  A
C1260      C1517   1.495       .  S
C1261      C1590   1.496       .  S
C1264      C1797   1.507   1_655  S
C1265      O1266   1.255       .  A
C1265      C1548   1.490       .  S
O1267      C1282   1.265       .  A
O1267     Al1275   1.900       .  S
C1268      O1278   1.258       .  A
C1268      O1269   1.275       .  A
C1268      C1475   1.478       .  S
O1269     Al1271   1.935       .  S
O1270      C1272   1.257       .  A
O1270     Al1271   1.916       .  S
Al1271     O1279   1.918       .  S
Al1271     O1281   1.949       .  S
Al1271     O1280   1.794       .  S
C1272      O1285   1.248       .  A
C1272      C1562   1.484       .  S
O1273      C1283   1.253       .  A
O1273     Al1275   1.893       .  S
O1274      C1287   1.254       .  A
O1274     Al1284   1.873       .  S
Al1275     O1288   1.878       .  S
Al1275     O1285   1.872       .  S
Al1275     O1280   1.789       .  S
O1276      C1283   1.254       .  A
O1276     Al1284   1.878       .  S
O1277      C1286   1.264       .  A
O1277     Al1284   1.915       .  S
O1278     Al1284   1.883       .  S
O1279      C1286   1.259       .  A
O1280     Al1284   1.784       .  S
O1281      C1282   1.277       .  A
C1282      C1520   1.490       .  S
C1283      C1489   1.476       .  S
C1286      C1657   1.508   1_655  S
C1287      O1288   1.256       .  A
C1287      C1464   1.467   1_556  S
O1289      C1304   1.259       .  A
O1289     Al1297   1.882       .  S
C1290      O1300   1.274       .  A
C1290      O1291   1.263       .  A
C1290      C1433   1.486       .  S
O1291     Al1293   1.895       .  S
O1292      C1294   1.259       .  A
O1292     Al1293   1.909       .  S
Al1293     O1301   1.927       .  S
Al1293     O1303   1.900       .  S
Al1293     O1302   1.797       .  S
C1294      O1307   1.256       .  A
C1294      C1408   1.497       .  S
O1295      C1305   1.254       .  A
O1295     Al1297   1.908       .  S
O1296      C1309   1.277       .  A
O1296     Al1306   1.944       .  S
Al1297     O1310   1.912       .  S
Al1297     O1307   1.887       .  S
Al1297     O1302   1.786       .  S
O1298      C1305   1.253       .  A
O1298     Al1306   1.903       .  S
O1299      C1308   1.253       .  A
O1299     Al1306   1.906       .  S
O1300     Al1306   1.917       .  S
O1301      C1308   1.263       .  A
O1302     Al1306   1.796       .  S
O1303      C1304   1.260       .  A
C1304      C1447   1.480       .  S
C1305      C1492   1.497       .  S
C1308      C1965   1.503   1_545  S
C1309      O1310   1.268       .  A
C1309      C1419   1.494       .  S
O1311      C1326   1.255       .  A
O1311     Al1319   1.855       .  S
C1312      O1322   1.275       .  A
C1312      O1313   1.266       .  A
C1312      C1461   1.477       .  S
O1313     Al1315   1.884       .  S
O1314      C1316   1.258       .  A
O1314     Al1315   1.912       .  S
Al1315     O1323   1.918       .  S
Al1315     O1325   1.899       .  S
Al1315     O1324   1.797       .  S
C1316      O1329   1.253       .  A
C1316      C1506   1.487       .  S
O1317      C1327   1.247       .  A
O1317     Al1319   1.884       .  S
O1318      C1331   1.278       .  A
O1318     Al1328   1.943       .  S
Al1319     O1332   1.923       .  S
Al1319     O1329   1.882       .  S
Al1319     O1324   1.781       .  S
O1320      C1327   1.254       .  A
O1320     Al1328   1.921       .  S
O1321      C1330   1.254   1_545  A
O1321     Al1328   1.916       .  S
O1322     Al1328   1.912       .  S
O1323      C1330   1.259   1_545  A
O1324     Al1328   1.799       .  S
O1325      C1326   1.259       .  A
C1326      C1478   1.485       .  S
C1327      C1391   1.501       .  S
C1330      C1730   1.509       .  S
C1331      O1332   1.272       .  A
C1331      C1422   1.495       .  S
O1333      C1348   1.258       .  A
O1333     Al1341   1.874       .  S
C1334      O1344   1.263       .  A
C1334      O1335   1.274       .  A
C1334      C1643   1.476       .  S
O1335     Al1337   1.944       .  S
O1336      C1338   1.256       .  A
O1336     Al1337   1.904       .  S
Al1337     O1345   1.925       .  S
Al1337     O1347   1.949       .  S
Al1337     O1346   1.807       .  S
C1338      O1351   1.257       .  A
C1338      C1405   1.493       .  S
O1339      C1349   1.260       .  A
O1339     Al1341   1.923       .  S
O1340      C1353   1.268       .  A
O1340     Al1350   1.914       .  S
Al1341     O1354   1.903       .  S
Al1341     O1351   1.891       .  S
Al1341     O1346   1.786       .  S
O1342      C1349   1.252       .  A
O1342     Al1350   1.888       .  S
O1343      C1352   1.248       .  A
O1343     Al1350   1.864       .  S
O1344     Al1350   1.870       .  S
O1345      C1352   1.258       .  A
O1346     Al1350   1.792       .  S
O1347      C1348   1.269       .  A
C1348      C1377   1.490       .  S
C1349      C1576   1.509       .  S
C1352      C1856   1.500       .  S
C1353      O1354   1.266       .  A
C1353      C1629   1.494   1_556  S
O1355      C1370   1.265       .  A
O1355     Al1363   1.882       .  S
C1356      O1366   1.257       .  A
C1356      O1357   1.264       .  A
C1356      C1450   1.472       .  S
O1357     Al1359   1.912       .  S
O1358      C1360   1.252       .  A
O1358     Al1359   1.900       .  S
Al1359     O1367   1.914       .  S
Al1359     O1369   1.953       .  S
Al1359     O1368   1.802       .  S
C1360      O1373   1.247       .  A
C1360      C1618   1.496       .  S
O1361      C1371   1.267       .  A
O1361     Al1363   1.913       .  S
O1362      C1375   1.264       .  A
O1362     Al1372   1.922       .  S
Al1363     O1376   1.869       .  S
Al1363     O1373   1.878       .  S
Al1363     O1368   1.790       .  S
O1364      C1371   1.263       .  A
O1364     Al1372   1.911       .  S
O1365      C1374   1.258       .  A
O1365     Al1372   1.890       .  S
O1366     Al1372   1.867       .  S
O1367      C1374   1.259       .  A
O1368     Al1372   1.796       .  S
O1369      C1370   1.275       .  A
C1370      C1380   1.489       .  S
C1371      C1394   1.490       .  S
C1374      C1674   1.496       .  S
C1375      O1376   1.251       .  A
C1375      C1436   1.502       .  S
C1377      C1378   1.410       .  A
C1378      C1383   1.444       .  S
C1379      C1380   1.412       .  A
C1380      C1381   1.413       .  A
C1381      C1382   1.415       .  A
C1381      C1384   1.449       .  S
C1382      C1385   1.449       .  S
C1383      N1390   1.155       .  T
C1384      N1389   1.157       .  T
C1385      N1387   1.157       .  T
C1386      N1388   1.157       .  T
C1391      C1392   1.423       .  A
C1391      C1396   1.418       .  A
C1392      C1393   1.414       .  A
C1392      C1397   1.452       .  S
C1393      C1394   1.410       .  A
C1393      C1400   1.452       .  S
C1394      C1395   1.416       .  A
C1395      C1396   1.412       .  A
C1395      C1398   1.453       .  S
C1396      C1399   1.452       .  S
C1397      N1404   1.157       .  T
C1398      N1403   1.157       .  T
C1399      N1401   1.158       .  T
C1400      N1402   1.157       .  T
C1405      C1406   1.412       .  A
C1405      C1410   1.405       .  A
C1406      C1407   1.418       .  A
C1406      C1411   1.449       .  S
C1407      C1408   1.420       .  A
C1407      C1414   1.451       .  S
C1408      C1409   1.418       .  A
C1409      C1410   1.407       .  A
C1409      C1412   1.450       .  S
C1410      C1413   1.447       .  S
C1411      N1418   1.158       .  T
C1412      N1417   1.157       .  T
C1413      N1415   1.156       .  T
C1414      N1416   1.157       .  T
C1419      C1420   1.414       .  A
C1419      C1424   1.413       .  A
C1420      C1421   1.422       .  A
C1420      C1425   1.449       .  S
C1421      C1422   1.413       .  A
C1421      C1428   1.449       .  S
C1422      C1423   1.412       .  A
C1423      C1424   1.414       .  A
C1423      C1426   1.450       .  S
C1424      C1427   1.449       .  S
C1425      N1432   1.157       .  T
C1426      N1431   1.157       .  T
C1427      N1429   1.157       .  T
C1428      N1430   1.157   1_545  T
C1433      C1434   1.418       .  A
C1433      C1438   1.408       .  A
C1434      C1439   1.452       .  S
C1435      C1436   1.412       .  A
C1435      C1442   1.447       .  S
C1437      C1438   1.408       .  A
C1437      C1440   1.455   1_556  S
C1438      C1441   1.454       .  S
C1439      N1446   1.157       .  T
C1440      N1445   1.158       .  T
C1441      N1443   1.157       .  T
C1442      N1444   1.156       .  T
C1447      C1448   1.418       .  A
C1447      C1452   1.411       .  A
C1448      C1449   1.405       .  A
C1448      C1453   1.453       .  S
C1449      C1450   1.406       .  A
C1449      C1456   1.452       .  S
C1450      C1451   1.412       .  A
C1451      C1452   1.411       .  A
C1451      C1454   1.452       .  S
C1452      C1455   1.447       .  S
C1453      N1460   1.157       .  T
C1454      N1459   1.157       .  T
C1455      N1457   1.156       .  T
C1456      N1458   1.157       .  T
C1461      C1462   1.412       .  A
C1461      C1466   1.420       .  A
C1462      C1463   1.406       .  A
C1462      C1467   1.450       .  S
C1465      C1466   1.404       .  A
C1465      C1468   1.453       .  S
C1466      C1469   1.451       .  S
C1467      N1474   1.157       .  T
C1469      N1471   1.157       .  T
C1470      N1472   1.157       .  T
C1475      C1476   1.409       .  A
C1475      C1480   1.416       .  A
C1476      C1477   1.416       .  A
C1476      C1481   1.450       .  S
C1477      C1478   1.420       .  A
C1477      C1484   1.449       .  S
C1478      C1479   1.413       .  A
C1479      C1480   1.395       .  A
C1479      C1482   1.455       .  S
C1480      C1483   1.448       .  S
C1481      N1488   1.157       .  T
C1482      N1487   1.157       .  T
C1483      N1485   1.157       .  T
C1484      N1486   1.158       .  T
C1489      C1490   1.405       .  A
C1489      C1494   1.410       .  A
C1490      C1491   1.410       .  A
C1490      C1495   1.452       .  S
C1491      C1492   1.421       .  A
C1491      C1498   1.451       .  S
C1492      C1493   1.419       .  A
C1493      C1494   1.413       .  A
C1493      C1496   1.451       .  S
C1494      C1497   1.453       .  S
C1495      N1502   1.157       .  T
C1496      N1501   1.157       .  T
C1497      N1499   1.158       .  T
C1498      N1500   1.158       .  T
C1503      C1504   1.418       .  A
C1503      C1508   1.420       .  A
C1504      C1505   1.411       .  A
C1504      C1509   1.453       .  S
C1505      C1506   1.410       .  A
C1505      C1512   1.446       .  S
C1506      C1507   1.412       .  A
C1507      C1508   1.412       .  A
C1507      C1510   1.450       .  S
C1508      C1511   1.452       .  S
C1509      N1516   1.158       .  T
C1510      N1515   1.157       .  T
C1511      N1513   1.158       .  T
C1512      N1514   1.155       .  T
C1517      C1518   1.413       .  A
C1517      C1522   1.412       .  A
C1518      C1519   1.415       .  A
C1518      C1523   1.450       .  S
C1519      C1526   1.450       .  S
C1520      C1521   1.414       .  A
C1521      C1524   1.449       .  S
C1523      N1530   1.157       .  T
C1524      N1529   1.157       .  T
C1525      N1527   1.157       .  T
C1526      N1528   1.157       .  T
C1531      C1532   1.420       .  A
C1531      C1536   1.415       .  A
C1532      C1533   1.409       .  A
C1532      C1537   1.451       .  S
C1533      C1534   1.410       .  A
C1533      C1540   1.453       .  S
C1534      C1535   1.413       .  A
C1535      C1536   1.407       .  A
C1535      C1538   1.454       .  S
C1536      C1539   1.450       .  S
C1537      N1544   1.157       .  T
C1538      N1543   1.157       .  T
C1539      N1541   1.156       .  T
C1540      N1542   1.157       .  T
C1545      C1546   1.413       .  A
C1545      C1550   1.419       .  A
C1546      C1551   1.450       .  S
C1547      C1548   1.419       .  A
C1547      C1554   1.450       .  S
C1549      C1550   1.399       .  A
C1549      C1552   1.453       .  S
C1550      C1553   1.451       .  S
C1551      N1558   1.157       .  T
C1552      N1557   1.157       .  T
C1553      N1555   1.157       .  T
C1554      N1556   1.157       .  T
C1559      C1560   1.408       .  A
C1559      C1564   1.407       .  A
C1560      C1561   1.408       .  A
C1560      C1565   1.450       .  S
C1561      C1562   1.414       .  A
C1561      C1568   1.452       .  S
C1562      C1563   1.420       .  A
C1563      C1564   1.407       .  A
C1563      C1566   1.452       .  S
C1564      C1567   1.454       .  S
C1565      N1572   1.157       .  T
C1566      N1571   1.158       .  T
C1567      N1569   1.157       .  T
C1568      N1570   1.157       .  T
C1573      C1574   1.423       .  A
C1573      C1578   1.421       .  A
C1574      C1575   1.415       .  A
C1574      C1579   1.451       .  S
C1575      C1576   1.413       .  A
C1575      C1582   1.449       .  S
C1576      C1577   1.423       .  A
C1577      C1578   1.412       .  A
C1577      C1580   1.455       .  S
C1578      C1581   1.453       .  S
C1579      N1586   1.157       .  T
C1580      N1585   1.158       .  T
C1581      N1583   1.158       .  T
C1582      N1584   1.158       .  T
C1587      C1588   1.418       .  A
C1587      C1592   1.421       .  A
C1588      C1589   1.410       .  A
C1588      C1593   1.453       .  S
C1589      C1590   1.411       .  A
C1589      C1596   1.443       .  S
C1590      C1591   1.412       .  A
C1591      C1592   1.417       .  A
C1591      C1594   1.452       .  S
C1592      C1595   1.447       .  S
C1593      N1600   1.158       .  T
C1594      N1599   1.157       .  T
C1595      N1597   1.157       .  T
C1596      N1598   1.154       .  T
C1601      C1602   1.414       .  A
C1601      C1606   1.416       .  A
C1602      C1603   1.422       .  A
C1602      C1607   1.449       .  S
C1603      C1604   1.415       .  A
C1603      C1610   1.449       .  S
C1604      C1605   1.411       .  A
C1605      C1606   1.416       .  A
C1605      C1608   1.447       .  S
C1606      C1609   1.451       .  S
C1607      N1614   1.157       .  T
C1608      N1613   1.156       .  T
C1609      N1611   1.157       .  T
C1610      N1612   1.157       .  T
C1615      C1616   1.417       .  A
C1615      C1620   1.422       .  A
C1616      C1617   1.411       .  A
C1616      C1621   1.453       .  S
C1617      C1618   1.419       .  A
C1617      C1624   1.453       .  S
C1618      C1619   1.415       .  A
C1619      C1620   1.412       .  A
C1619      C1622   1.452       .  S
C1620      C1623   1.454       .  S
C1621      N1628   1.158       .  T
C1622      N1627   1.158       .  T
C1623      N1625   1.158       .  T
C1624      N1626   1.157       .  T
C1630      C1631   1.416       .  A
C1631      C1632   1.416       .  A
C1631      C1638   1.452       .  S
C1632      C1633   1.402       .  A
C1633      C1634   1.402       .  A
C1633      C1636   1.448       .  S
C1634      C1637   1.453       .  S
C1635      N1642   1.157       .  T
C1636      N1641   1.156       .  T
C1638      N1640   1.158       .  T
C1643      C1644   1.412       .  A
C1643      C1648   1.403       .  A
C1644      C1645   1.414       .  A
C1644      C1649   1.452       .  S
C1645      C1646   1.415       .  A
C1645      C1652   1.449       .  S
C1646      C1647   1.426       .  A
C1647      C1648   1.408       .  A
C1647      C1650   1.453       .  S
C1648      C1651   1.452       .  S
C1649      N1656   1.157       .  T
C1650      N1655   1.157       .  T
C1651      N1653   1.157       .  T
C1652      N1654   1.157       .  T
C1657      C1658   1.420       .  A
C1657      C1662   1.419       .  A
C1658      C1659   1.421       .  A
C1658      C1663   1.451       .  S
C1659      C1660   1.418       .  A
C1659      C1666   1.451       .  S
C1660      C1661   1.421       .  A
C1661      C1662   1.416       .  A
C1661      C1664   1.453   1_545  S
C1662      C1665   1.453   1_455  S
C1663      N1670   1.158       .  T
C1664      N1669   1.158       .  T
C1665      N1667   1.157       .  T
C1666      N1668   1.157       .  T
C1671      C1672   1.419       .  A
C1671      C1676   1.415       .  A
C1672      C1673   1.406       .  A
C1672      C1677   1.446       .  S
C1673      C1674   1.401       .  A
C1673      C1680   1.448       .  S
C1674      C1675   1.419       .  A
C1675      C1676   1.425       .  A
C1675      C1678   1.449       .  S
C1676      C1679   1.449       .  S
C1677      N1684   1.156   1_545  T
C1678      N1683   1.157       .  T
C1679      N1681   1.157       .  T
C1680      N1682   1.156       .  T
C1685      C1686   1.415   1_545  A
C1685      C1690   1.416       .  A
C1686      C1687   1.419       .  A
C1686      C1691   1.449       .  S
C1687      C1688   1.414       .  A
C1687      C1694   1.448       .  S
C1688      C1689   1.410   1_565  A
C1689      C1690   1.418       .  A
C1689      C1692   1.451       .  S
C1690      C1693   1.444       .  S
C1691      N1698   1.157       .  T
C1692      N1697   1.157       .  T
C1693      N1695   1.155       .  T
C1694      N1696   1.156       .  T
C1699      C1700   1.410       .  A
C1699      C1704   1.416       .  A
C1700      C1701   1.419       .  A
C1700      C1705   1.451       .  S
C1701      C1702   1.426       .  A
C1701      C1708   1.451       .  S
C1702      C1703   1.424       .  A
C1703      C1704   1.413       .  A
C1703      C1706   1.454       .  S
C1704      C1707   1.452       .  S
C1705      N1712   1.157       .  T
C1706      N1711   1.158   1_655  T
C1707      N1709   1.157       .  T
C1708      N1710   1.157       .  T
C1713      C1714   1.424       .  A
C1713      C1718   1.426       .  A
C1714      C1715   1.411       .  A
C1714      C1719   1.451       .  S
C1715      C1716   1.409       .  A
C1715      C1722   1.454       .  S
C1716      C1717   1.409       .  A
C1717      C1718   1.414       .  A
C1717      C1720   1.451       .  S
C1718      C1721   1.453       .  S
C1719      N1726   1.159   1_455  T
C1720      N1725   1.158       .  T
C1721      N1723   1.157       .  T
C1722      N1724   1.156       .  T
C1727      C1728   1.410       .  A
C1727      C1732   1.423       .  A
C1728      C1729   1.423       .  A
C1728      C1733   1.449       .  S
C1729      C1730   1.425       .  A
C1729      C1736   1.450       .  S
C1730      C1731   1.409       .  A
C1731      C1732   1.417       .  A
C1731      C1734   1.451       .  S
C1732      C1735   1.448       .  S
C1733      N1740   1.157       .  T
C1734      N1739   1.157       .  T
C1735      N1737   1.157       .  T
C1736      N1738   1.158       .  T
C1741      C1742   1.406       .  A
C1741      C1746   1.406       .  A
C1742      C1743   1.414       .  A
C1742      C1747   1.452       .  S
C1743      C1744   1.426       .  A
C1743      C1750   1.451       .  S
C1744      C1745   1.427       .  A
C1745      C1746   1.414       .  A
C1745      C1748   1.452       .  S
C1746      C1749   1.452       .  S
C1747      N1754   1.157       .  T
C1748      N1753   1.158       .  T
C1749      N1751   1.157       .  T
C1750      N1752   1.158       .  T
C1755      C1760   1.414       .  A
C1756      C1757   1.420       .  A
C1756      C1761   1.443       .  S
C1757      C1758   1.412   1_655  A
C1757      C1764   1.450       .  S
C1758      C1759   1.411       .  A
C1760      C1763   1.445       .  S
C1761      N1768   1.155       .  T
C1762      N1767   1.157       .  T
C1763      N1765   1.156       .  T
C1764      N1766   1.157       .  T
C1769      C1770   1.418       .  A
C1769      C1774   1.429       .  A
C1770      C1771   1.408       .  A
C1770      C1775   1.449       .  S
C1771      C1772   1.409       .  A
C1771      C1778   1.453       .  S
C1772      C1773   1.401       .  A
C1773      C1774   1.407       .  A
C1773      C1776   1.453       .  S
C1774      C1777   1.453       .  S
C1775      N1782   1.156       .  T
C1776      N1781   1.157       .  T
C1777      N1779   1.158       .  T
C1778      N1780   1.157       .  T
C1783      C1788   1.420       .  A
C1784      C1785   1.412       .  A
C1785      C1786   1.415       .  A
C1785      C1792   1.448       .  S
C1786      C1787   1.409       .  A
C1787      C1790   1.451       .  S
C1788      C1791   1.453       .  S
C1789      N1796   1.157       .  T
C1790      N1795   1.157       .  T
C1791      N1793   1.157       .  T
C1792      N1794   1.156   1_565  T
C1797      C1798   1.409       .  A
C1797      C1802   1.427       .  A
C1798      C1799   1.416       .  A
C1798      C1803   1.452       .  S
C1799      C1800   1.418       .  A
C1799      C1806   1.445       .  S
C1800      C1801   1.407       .  A
C1801      C1802   1.421       .  A
C1801      C1804   1.450       .  S
C1802      C1805   1.450       .  S
C1803      N1810   1.157       .  T
C1804      N1809   1.157       .  T
C1805      N1807   1.157       .  T
C1806      N1808   1.156       .  T
C1811      C1812   1.411       .  A
C1811      C1816   1.424       .  A
C1812      C1813   1.413       .  A
C1812      C1817   1.452       .  S
C1813      C1814   1.426       .  A
C1813      C1820   1.453       .  S
C1814      C1815   1.411       .  A
C1815      C1816   1.419       .  A
C1815      C1818   1.451       .  S
C1816      C1819   1.450       .  S
C1817      N1824   1.157       .  T
C1818      N1823   1.157       .  T
C1819      N1821   1.157   1_455  T
C1820      N1822   1.157       .  T
C1825      C1826   1.417       .  A
C1825      C1830   1.423       .  A
C1826      C1827   1.411       .  A
C1826      C1831   1.450       .  S
C1829      C1830   1.405       .  A
C1829      C1832   1.449       .  S
C1830      C1833   1.452       .  S
C1831      N1838   1.158       .  T
C1832      N1837   1.157   1_455  T
C1833      N1835   1.157       .  T
C1834      N1836   1.157       .  T
C1839      C1840   1.414       .  A
C1839      C1844   1.419       .  A
C1840      C1841   1.414       .  A
C1840      C1845   1.452       .  S
C1841      C1842   1.424       .  A
C1841      C1848   1.452       .  S
C1842      C1843   1.423       .  A
C1843      C1844   1.408       .  A
C1843      C1846   1.455       .  S
C1844      C1847   1.456       .  S
C1845      N1852   1.157       .  T
C1846      N1851   1.158       .  T
C1847      N1849   1.158       .  T
C1848      N1850   1.158       .  T
C1853      C1854   1.421       .  A
C1853      C1858   1.414       .  A
C1854      C1855   1.406       .  A
C1854      C1859   1.455       .  S
C1855      C1856   1.417       .  A
C1855      C1862   1.455       .  S
C1856      C1857   1.420       .  A
C1857      C1858   1.422       .  A
C1857      C1860   1.450       .  S
C1858      C1861   1.450       .  S
C1859      N1866   1.157       .  T
C1860      N1865   1.157       .  T
C1861      N1863   1.157       .  T
C1862      N1864   1.157       .  T
C1867      C1868   1.413       .  A
C1867      C1872   1.410       .  A
C1868      C1869   1.402       .  A
C1868      C1873   1.456       .  S
C1869      C1870   1.416       .  A
C1869      C1876   1.447       .  S
C1870      C1871   1.423       .  A
C1871      C1872   1.413       .  A
C1871      C1874   1.452       .  S
C1872      C1875   1.452       .  S
C1873      N1880   1.158       .  T
C1874      N1879   1.158       .  T
C1875      N1877   1.157       .  T
C1876      N1878   1.154       .  T
C1881      C1882   1.413       .  A
C1881      C1886   1.414       .  A
C1882      C1883   1.415       .  A
C1882      C1887   1.450       .  S
C1883      C1884   1.416       .  A
C1883      C1890   1.451       .  S
C1884      C1885   1.415       .  A
C1885      C1886   1.417       .  A
C1885      C1888   1.450       .  S
C1886      C1889   1.450       .  S
C1887      N1894   1.157       .  T
C1888      N1893   1.157       .  T
C1889      N1891   1.158       .  T
C1890      N1892   1.158       .  T
C1895      C1896   1.426       .  A
C1895      C1900   1.411       .  A
C1896      C1897   1.419       .  A
C1896      C1901   1.450       .  S
C1897      C1898   1.405       .  A
C1897      C1904   1.449       .  S
C1898      C1899   1.418       .  A
C1899      C1900   1.417       .  A
C1899      C1902   1.449       .  S
C1900      C1903   1.450       .  S
C1901      N1908   1.157       .  T
C1902      N1907   1.157       .  T
C1903      N1905   1.157       .  T
C1904      N1906   1.157       .  T
C1909      C1910   1.423       .  A
C1910      C1915   1.450       .  S
C1911      C1912   1.410       .  A
C1911      C1918   1.451       .  S
C1912      C1913   1.405       .  A
C1913      C1914   1.398       .  A
C1913      C1916   1.446       .  S
C1914      C1917   1.457       .  S
C1915      N1922   1.158       .  T
C1916      N1921   1.153       .  T
C1918      N1920   1.157       .  T
C1923      C1924   1.421       .  A
C1923      C1928   1.405       .  A
C1924      C1925   1.412       .  A
C1924      C1929   1.451       .  S
C1925      C1926   1.409       .  A
C1925      C1932   1.451       .  S
C1926      C1927   1.424       .  A
C1927      C1928   1.397       .  A
C1927      C1930   1.455       .  S
C1928      C1931   1.455       .  S
C1929      N1936   1.157       .  T
C1930      N1935   1.157       .  T
C1931      N1933   1.157       .  T
C1932      N1934   1.157       .  T
C1937      C1938   1.417       .  A
C1937      C1942   1.410       .  A
C1938      C1939   1.418       .  A
C1938      C1943   1.452       .  S
C1939      C1940   1.415       .  A
C1939      C1946   1.449       .  S
C1940      C1941   1.417       .  A
C1941      C1942   1.411       .  A
C1941      C1944   1.451       .  S
C1942      C1945   1.446       .  S
C1943      N1950   1.158       .  T
C1944      N1949   1.157       .  T
C1945      N1947   1.155       .  T
C1946      N1948   1.157       .  T
C1951      C1952   1.416       .  A
C1951      C1956   1.422       .  A
C1952      C1953   1.414       .  A
C1952      C1957   1.449       .  S
C1953      C1954   1.408       .  A
C1953      C1960   1.447       .  S
C1954      C1955   1.410       .  A
C1955      C1956   1.416       .  A
C1955      C1958   1.452       .  S
C1956      C1959   1.451       .  S
C1957      N1964   1.158       .  T
C1958      N1963   1.157       .  T
C1959      N1961   1.157       .  T
C1960      N1962   1.157       .  T
C1965      C1966   1.406       .  A
C1965      C1970   1.423       .  A
C1966      C1967   1.416       .  A
C1966      C1971   1.450       .  S
C1967      C1968   1.420       .  A
C1967      C1974   1.446       .  S
C1968      C1969   1.408       .  A
C1969      C1970   1.419       .  A
C1969      C1972   1.450       .  S
C1970      C1973   1.449       .  S
C1971      N1978   1.157       .  T
C1972      N1977   1.157       .  T
C1973      N1975   1.157       .  T
C1974      N1976   1.156       .  T
C1979      C1980   1.413       .  A
C1979      C1984   1.419       .  A
C1980      C1981   1.409       .  A
C1980      C1985   1.452       .  S
C1981      C1982   1.421       .  A
C1981      C1988   1.453       .  S
C1982      C1983   1.416       .  A
C1983      C1984   1.416       .  A
C1983      C1986   1.452       .  S
C1984      C1987   1.451       .  S
C1985      N1992   1.157       .  T
C1986      N1991   1.158       .  T
C1987      N1989   1.157       .  T
C1988      N1990   1.157       .  T
C1993      C1994   1.412   1_556  A
C1993      C1998   1.412       .  A
C1994      C1999   1.450       .  S
C1995      C1996   1.410       .  A
C1995      C2002   1.449       .  S
C1996      C1997   1.413       .  A
C1997      C2000   1.449       .  S
C1998      C2001   1.448       .  S
C1999      N2006   1.157       .  T
C2000      N2005   1.157       .  T
C2001      N2003   1.157       .  T
C2002      N2004   1.157       .  T
C2007      C2008   1.417       .  A
C2007      C2012   1.414       .  A
C2008      C2009   1.409       .  A
C2008      C2013   1.452       .  S
C2009      C2010   1.410       .  A
C2009      C2016   1.453       .  S
C2010      C2011   1.412       .  A
C2011      C2012   1.411       .  A
C2011      C2014   1.450       .  S
C2012      C2015   1.452       .  S
C2013      N2020   1.157       .  T
C2014      N2019   1.157       .  T
C2015      N2017   1.158       .  T
C2016      N2018   1.158       .  T
C2021      C2022   1.421       .  A
C2021      C2026   1.415       .  A
C2022      C2023   1.405       .  A
C2022      C2027   1.451       .  S
C2023      C2024   1.397       .  A
C2023      C2030   1.447       .  S
C2024      C2025   1.400       .  A
C2025      C2026   1.400       .  A
C2025      C2028   1.448       .  S
C2026      C2029   1.451       .  S
C2027      N2034   1.157       .  T
C2028      N2033   1.157       .  T
C2029      N2031   1.157       .  T
C2030      N2032   1.157   1_565  T
C2035      C2036   1.405       .  A
C2035      C2040   1.412       .  A
C2036      C2037   1.396       .  A
C2036      C2041   1.453       .  S
C2037      C2038   1.429       .  A
C2037      C2044   1.455       .  S
C2038      C2039   1.421       .  A
C2039      C2040   1.417       .  A
C2039      C2042   1.450       .  S
C2041      N2048   1.156       .  T
C2042      N2047   1.157   1_565  T
C2043      N2045   1.157       .  T
C2044      N2046   1.158       .  T
