geometry optimzed in LAMMPS
_audit_creation_date              2020-12-01 
_audit_creation_method            'lammps2cif' 
_symmetry_space_group_name_H-M    'P1' 
_symmetry_Int_Tables_number       1 
_symmetry_cell_setting            triclinic 
loop_ 
_symmetry_equiv_pos_as_xyz 
  x,y,z 
_cell_length_a                    26.49978969 
_cell_length_b                    26.631942066011597 
_cell_length_c                    43.636633515276635 
_cell_angle_alpha                 90.81420519651004 
_cell_angle_beta                  89.5901711383255 
_cell_angle_gamma                 90.10526448071539 
loop_ 
_atom_site_label 
_atom_site_type_symbol 
_atom_site_fract_x 
_atom_site_fract_y 
_atom_site_fract_z 
_atom_site_charge 
O1          O  0.51466396  0.81937364  0.52749540    -0.82900
C2          C  0.45294577  0.75985001  0.13664938     0.96400
O3          O  0.44151361  0.79571222  0.11907559    -0.72100
O4          O  0.46138041  0.85879612  0.07461299    -0.75600
Al5        Al  0.44131733  0.79055453  0.07556255     1.49000
C6          C  0.50072775  0.88164057  0.08273540     0.91700
O7          O  0.60498638  0.77406997  0.08856007    -0.81900
O8          O  0.55518177  0.67903539  0.06059350    -0.75400
Al9        Al  0.55446102  0.79746164  0.05994299     1.90100
O10         O  0.56301414  0.72220170  0.11791313    -0.74500
O11         O  0.45918329  0.67475777  0.06650910    -0.74300
O12         O  0.46596169  0.71742185  0.12560548    -0.80000
O13         O  0.40161454  0.73022592  0.07665900    -0.78200
O14         O  0.50283605  0.76380696  0.07610212    -1.14300
O15         O  0.44132334  0.78043755  0.53238180    -0.73500
C16         C  0.47661771  0.79790567  0.51570007     0.97200
C17         C  0.60346455  0.74391992  0.11077151     0.93600
Al18       Al  0.51011932  0.70324101  0.09155612     1.55600
O19         O  0.54201054  0.85751375  0.08518424    -0.78200
C20         C  0.41396699  0.68837217  0.06547697     0.97700
C21         C  0.57204667  0.69736108  0.03602900     0.92600
O22         O  0.57113274  0.74415513  0.03205347    -0.83500
O23         O  0.81578503  0.51191635  0.24489260    -0.82900
C24         C  0.74071313  0.46046963  0.13575259     0.96400
O25         O  0.77688178  0.44574415  0.15238671    -0.72100
O26         O  0.84441733  0.46055147  0.19565270    -0.75600
Al27       Al  0.77492348  0.44298263  0.19600037     1.49000
C28         C  0.86765671  0.49930910  0.18732752     0.91700
O29         O  0.76375363  0.60713618  0.18786230    -0.81900
O30         O  0.66906393  0.55985115  0.21597375    -0.75400
Al31       Al  0.78739890  0.55419142  0.21426613     1.90100
O32         O  0.70885953  0.56906095  0.15816702    -0.74500
O33         O  0.65963599  0.46471348  0.20801652    -0.74300
O34         O  0.69900555  0.47328170  0.14799181    -0.80000
O35         O  0.71267760  0.40606761  0.19567443    -0.78200
O36         O  0.75035972  0.50512693  0.19765773    -1.14300
O37         O  0.77279979  0.44125478  0.24003762    -0.73500
C38         C  0.79315436  0.47505087  0.25680231     0.97200
C39         C  0.73257379  0.60801784  0.16602845     0.93600
Al40       Al  0.68899670  0.51574178  0.18355075     1.55600
O41         O  0.84442139  0.54115444  0.18681567    -0.78200
C42         C  0.67191902  0.41921085  0.20815925     0.97700
C43         C  0.68955814  0.57515858  0.24042388     0.92600
O44         O  0.73665133  0.57142649  0.24401093    -0.83500
O45         O  0.56268662  0.23112406  0.27805835    -0.82900
C46         C  0.44206219  0.21136578  0.38148594     0.96400
O47         O  0.45564199  0.25402718  0.37192029    -0.72100
O48         O  0.55330394  0.24281939  0.36623132    -0.75600
Al49       Al  0.50299199  0.26769442  0.33979898     1.49000
C50         C  0.59430841  0.22435882  0.35664762     0.91700
O51         O  0.52972696  0.11352246  0.32651783    -0.81900
O52         O  0.43301050  0.19265960  0.27526787    -0.75400
Al53       Al  0.54432417  0.17539201  0.30356952     1.90100
O54         O  0.44948402  0.11625477  0.31566838    -0.74500
O55         O  0.39484376  0.24640257  0.32214115    -0.74300
O56         O  0.43049792  0.17656298  0.36255223    -0.80000
O57         O  0.45487086  0.30041636  0.31460728    -0.78200
O58         O  0.49369697  0.20910456  0.32113530    -1.14300
O59         O  0.55164307  0.29181986  0.31167664    -0.73500
C60         C  0.56727336  0.27692443  0.28584304     0.97200
C61         C  0.48736321  0.09109823  0.32314136     0.93600
Al62       Al  0.43149073  0.18461287  0.31906525     1.55600
O63         O  0.59523193  0.19629016  0.33293350    -0.78200
C64         C  0.40926718  0.28798007  0.31208464     0.97700
C65         C  0.46783947  0.17452117  0.25822798     0.92600
O66         O  0.50478283  0.15152870  0.26970170    -0.83500
O67         O  0.72510412  0.39690954  0.98589680    -0.82900
C68         C  0.75011508  0.51318558  0.38460423     0.96400
O69         O  0.70673681  0.50190275  0.39473938    -0.72100
O70         O  0.71400270  0.40470826  0.39931844    -0.75600
Al71       Al  0.69159409  0.45570860  0.42669666     1.49000
C72         C  0.73218709  0.36340444  0.40743722     0.91700
O73         O  0.84486032  0.42395009  0.43618881    -0.81900
O74         O  0.76133133  0.52916371  0.99072802    -0.75400
Al75       Al  0.78353643  0.41126063  0.46034408     1.90100
O76         O  0.84647457  0.50403457  0.44829185    -0.74500
O77         O  0.71676851  0.56258805  0.44622557    -0.74300
O78         O  0.78507507  0.52486839  0.40319454    -0.80000
O79         O  0.66036780  0.50480010  0.45256442    -0.78200
O80         O  0.75100710  0.46298098  0.44443361    -1.14300
O81         O  0.66627461  0.40860676  0.45498860    -0.73500
C82         C  0.67889491  0.39329425  0.97907738     0.97200
C83         C  0.86909657  0.46527567  0.43886290     0.93600
Al84       Al  0.77791327  0.52404049  0.44693603     1.55600
O85         O  0.76045281  0.36137128  0.43068366    -0.78200
C86         C  0.67396117  0.54966729  0.45600130     0.97700
C87         C  0.77966404  0.49489434  0.00746174     0.92600
O88         O  0.80191764  0.45717806  0.99565929    -0.83500
O89         O  0.44311280  0.14873520  0.52126987    -0.82900
C90         C  0.50076591  0.21883680  0.13077091     0.96400
O91         O  0.51411954  0.18416059  0.11209909    -0.72100
O92         O  0.49718779  0.12143485  0.06614531    -0.75600
Al93       Al  0.51392731  0.19013396  0.06876261     1.49000
C94         C  0.46042956  0.09631199  0.07589526     0.91700
O95         O  0.35046281  0.19820264  0.08517186    -0.81900
O96         O  0.39711314  0.29681711  0.05671301    -0.75400
Al97       Al  0.40106410  0.17757345  0.05530298     1.90100
O98         O  0.38947269  0.25485291  0.11332316    -0.74500
O99         O  0.49241983  0.30484364  0.06184992    -0.74300
O100        O  0.48635682  0.26127466  0.12104266    -0.80000
O101        O  0.55153238  0.25164003  0.07101028    -0.78200
O102        O  0.45139274  0.21420078  0.07074891    -1.14300
O103        O  0.51415117  0.19209358  0.52433511    -0.73500
C104        C  0.47912828  0.17197668  0.50849128     0.97200
C105        C  0.35043657  0.23002713  0.10700236     0.93600
Al106      Al  0.44225389  0.27464169  0.08710613     1.55600
O107        O  0.41797249  0.11816114  0.07971331    -0.78200
C108        C  0.53790508  0.29241593  0.05983335     0.97700
C109        C  0.37855846  0.27692481  0.03293020     0.92600
O110        O  0.37986963  0.22990043  0.02865567    -0.83500
O111        O  0.14434017  0.45391535  0.24948641    -0.82900
C112        C  0.20241399  0.51249219  0.13938179     0.96400
O113        O  0.16937622  0.52630295  0.15877776    -0.72100
O114        O  0.10994492  0.50879367  0.20534849    -0.75600
Al115      Al  0.17910734  0.52562179  0.20170637     1.49000
C116        C  0.08485041  0.47236325  0.19502785     0.91700
O117        O  0.18659351  0.36230134  0.18587274    -0.81900
O118        O  0.28393151  0.40411538  0.20717660    -0.75400
Al119      Al  0.16735532  0.41378130  0.21538202     1.90100
O120        O  0.23326434  0.40260397  0.15266911    -0.74500
O121        O  0.29559752  0.50021604  0.20450951    -0.74300
O122        O  0.24611955  0.49998616  0.14818136    -0.80000
O123        O  0.24211408  0.56070121  0.19872954    -0.78200
O124        O  0.20241453  0.46328277  0.19869248    -1.14300
O125        O  0.18801140  0.52426002  0.24495465    -0.73500
C126        C  0.16809521  0.49051330  0.26140066     0.97200
C127        C  0.21376074  0.36234539  0.16192781     0.93600
Al128      Al  0.26030007  0.45262964  0.17944983     1.55600
O129        O  0.10651409  0.42975715  0.19175788    -0.78200
C130        C  0.28437890  0.54582000  0.20782549     0.97700
C131        C  0.26876842  0.38893573  0.23284839     0.92600
O132        O  0.22295288  0.39457716  0.24077239    -0.83500
O133        O  0.22471914  0.57837136  0.99539788    -0.82900
C134        C  0.20980512  0.45793242  0.38802447     0.96400
O135        O  0.25236572  0.47197545  0.39808436    -0.72100
O136        O  0.24400765  0.56855303  0.40750670    -0.75600
Al137      Al  0.26603419  0.51533674  0.43226658     1.49000
C138        C  0.21958563  0.60719355  0.41545059     0.91700
O139        O  0.10856255  0.53893237  0.44334485    -0.81900
O140        O  0.18046233  0.44807710  0.99372292    -0.75400
Al141      Al  0.17033463  0.55502540  0.46677134     1.90100
O142        O  0.11321890  0.45934931  0.45312711    -0.74500
O143        O  0.24349471  0.40676875  0.44587047    -0.74300
O144        O  0.17481178  0.44483441  0.40634137    -0.80000
O145        O  0.29834321  0.46447489  0.45569390    -0.78200
O146        O  0.20614845  0.50550432  0.44934657    -1.14300
O147        O  0.28904008  0.55979900  0.46259231    -0.73500
C148        C  0.27119744  0.58138825  0.98857400     0.97200
C149        C  0.08701197  0.49626687  0.44592521     0.93600
Al150      Al  0.18191555  0.44328968  0.44965544     1.55600
O151        O  0.18879810  0.60614201  0.43772692    -0.78200
C152        C  0.28592674  0.41898819  0.45607281     0.97700
C153        C  0.16291255  0.48240189  0.01129663     0.92600
O154        O  0.14312838  0.52143261  0.00038309    -0.83500
O155        O  0.39089179  0.73698909  0.28020637    -0.82900
C156        C  0.50269451  0.75416948  0.38716594     0.96400
O157        O  0.48653341  0.71216813  0.37713338    -0.72100
O158        O  0.39011776  0.71715875  0.36650634    -0.75600
Al159      Al  0.44585471  0.69694010  0.34192087     1.49000
C160        C  0.35045172  0.73815541  0.35763471     0.91700
O161        O  0.41617380  0.85039562  0.33401928    -0.81900
O162        O  0.51863168  0.77780900  0.28151382    -0.75400
Al163      Al  0.40533190  0.79071864  0.30838283     1.90100
O164        O  0.49767652  0.85178185  0.32497576    -0.74500
O165        O  0.55615370  0.72240436  0.32634950    -0.74300
O166        O  0.51629800  0.78838363  0.36890039    -0.80000
O167        O  0.49897143  0.66588720  0.31900280    -0.78200
O168        O  0.45547485  0.75685899  0.32571436    -1.14300
O169        O  0.40376712  0.67255786  0.30986978    -0.73500
C170        C  0.38861043  0.69031589  0.28485250     0.97200
C171        C  0.45779102  0.87450482  0.33263328     0.93600
Al172      Al  0.51737445  0.78306102  0.32550251     1.55600
O173        O  0.35177986  0.76774646  0.33525655    -0.78200
C174        C  0.54425412  0.67914667  0.31712494     0.97700
C175        C  0.48457461  0.79682739  0.26494353     0.92600
O176        O  0.44677387  0.81832533  0.27695275    -0.83500
C177        C  0.29508991  0.72369569  0.40318153    -0.10300
C178        C  0.30182392  0.72143363  0.37129134     0.05900
C179        C  0.26880229  0.69059695  0.35397409    -0.04100
C180        C  0.23672378  0.65651811  0.36871097    -0.08500
C181        C  0.23388730  0.65506927  0.40072962     0.05000
C182        C  0.25985942  0.69242414  0.41778740    -0.03500
Br183      Br  0.25309994  0.69875865  0.46139793    -0.03200
H184        H  0.31937533  0.74762851  0.41693035     0.08900
H185        H  0.21665757  0.62864556  0.35515424     0.06900
Br186      Br  0.26973043  0.68870402  0.31019018    -0.03700
C187        C  0.37596892  0.60325521  0.26501501    -0.10300
C188        C  0.36712228  0.65492788  0.26152515     0.05900
C189        C  0.33560297  0.67012989  0.23734661    -0.04100
C190        C  0.31152332  0.63382849  0.21897627    -0.08500
C191        C  0.31850133  0.58209595  0.22362732     0.05000
C192        C  0.35290031  0.56711109  0.24627516    -0.03500
Br193      Br  0.36752543  0.49823668  0.25511410    -0.03200
H194        H  0.39967643  0.59041652  0.28333538     0.08900
H195        H  0.28562896  0.64625875  0.20156715     0.06900
Br196      Br  0.31977999  0.73908004  0.22942572    -0.03700
C197        C  0.22770994  0.48271266  0.30333200    -0.10300
C198        C  0.17764549  0.48876607  0.29422466     0.05900
C199        C  0.13830468  0.48119769  0.31536829    -0.04100
C200        C  0.14952071  0.46867371  0.34552020    -0.08500
C201        C  0.19978857  0.46247392  0.35491847     0.05000
C202        C  0.23919086  0.46897570  0.33318941    -0.03500
Br203      Br  0.30926185  0.45699476  0.34163614    -0.03200
H204        H  0.25796363  0.48591756  0.28660696     0.08900
H205        H  0.11873493  0.46497305  0.36180749     0.06900
Br206      Br  0.06888928  0.48866856  0.30406971    -0.03700
C207        C  0.13297138  0.50656112  0.06320333    -0.10300
C208        C  0.16869828  0.48112177  0.04479023     0.05900
C209        C  0.21434660  0.46610739  0.05802303    -0.04100
C210        C  0.22447858  0.47842552  0.08835557    -0.08500
C211        C  0.18978449  0.50535052  0.10665534     0.05000
C212        C  0.14281043  0.51854222  0.09390224    -0.03500
Br213      Br  0.09092214  0.55430611  0.11606069    -0.03200
H214        H  0.09784347  0.51897183  0.05327476     0.08900
H215        H  0.26025798  0.46647450  0.09760189     0.06900
Br216      Br  0.26709576  0.43262923  0.03601800    -0.03700
C217        C  0.29759947  0.33081026  0.47267240    -0.10300
C218        C  0.31775412  0.37974356  0.47047675     0.05900
C219        C  0.36313746  0.39073983  0.48615175    -0.04100
C220        C  0.37992853  0.35703722  0.00469626    -0.08500
C221        C  0.35654635  0.31047433  0.00979378     0.05000
C222        C  0.31182818  0.29884140  0.99403854    -0.03500
Br223      Br  0.27551991  0.23741686  0.00039139    -0.03200
H224        H  0.26313302  0.32093695  0.46082991     0.08900
H225        H  0.41496219  0.36610092  0.01620391     0.06900
Br226      Br  0.39660067  0.45479048  0.48474097    -0.03700
C227        C  0.26503503  0.26718999  0.10473467    -0.10300
C228        C  0.30304718  0.24551825  0.12267630     0.05900
C229        C  0.30203461  0.25421641  0.15457768    -0.04100
C230        C  0.26678881  0.28758193  0.16752341    -0.08500
C231        C  0.23331032  0.31437208  0.14903172     0.05000
C232        C  0.23087432  0.30211611  0.11761802    -0.03500
Br233      Br  0.18400341  0.33500352  0.09140114    -0.03200
H234        H  0.26548761  0.26145428  0.08009877     0.08900
H235        H  0.26939237  0.29670925  0.19173957     0.06900
Br236      Br  0.35196184  0.22602393  0.18086170    -0.03700
C237        C  0.95585808  0.43309800  0.44735986    -0.10300
C238        C  0.92503616  0.46955419  0.43460294     0.05900
C239        C  0.94826061  0.51431904  0.42400898    -0.04100
C240        C  0.00058559  0.52238033  0.42741663    -0.08500
C241        C  0.03130010  0.48680260  0.44159372     0.05000
C242        C  0.00776302  0.44119352  0.45137030    -0.03500
Br243      Br  0.04138348  0.38862645  0.47317994    -0.03200
H244        H  0.93880335  0.39929688  0.45636130     0.08900
H245        H  0.01713658  0.55695645  0.41923840     0.06900
Br246      Br  0.91047766  0.56612841  0.40448111    -0.03700
C247        C  0.55784119  0.33712233  0.01235941    -0.10300
C248        C  0.57366487  0.32220853  0.04133613     0.05900
C249        C  0.62635297  0.32845741  0.55047068    -0.04100
C250        C  0.65994558  0.35226017  0.53030311    -0.08500
C251        C  0.64219720  0.36825491  0.00002460     0.05000
C252        C  0.59130175  0.35882738  0.99152763    -0.03500
Br253      Br  0.56387637  0.37095219  0.95156201    -0.03200
H254        H  0.51944712  0.32954047  0.00523437     0.08900
H255        H  0.69847501  0.35858207  0.53755322     0.06900
Br256      Br  0.65066540  0.30933942  0.58991841    -0.03700
C257        C  0.51108727  0.00688216  0.34545251    -0.10300
C258        C  0.47921876  0.03546927  0.32695992     0.05900
C259        C  0.43730718  0.01031231  0.31308266    -0.04100
C260        C  0.42843597  0.95908071  0.31793068    -0.08500
C261        C  0.46096090  0.93039984  0.33557006     0.05000
C262        C  0.50257703  0.95502034  0.34958920    -0.03500
Br263      Br  0.54898926  0.91953927  0.37487903    -0.03200
H264        H  0.54281113  0.02480203  0.35669356     0.08900
H265        H  0.39767885  0.94068052  0.30595195     0.06900
Br266      Br  0.39211202  0.04101877  0.28454761    -0.03700
C267        C  0.39092181  0.33782281  0.26652906    -0.10300
C268        C  0.37387938  0.31890751  0.29447403     0.05900
C269        C  0.32249702  0.32400371  0.30244971    -0.04100
C270        C  0.28915125  0.34739023  0.28233971    -0.08500
C271        C  0.30569702  0.36480145  0.25364444     0.05000
C272        C  0.35770608  0.35954697  0.24589150    -0.03500
Br273      Br  0.38771406  0.37848319  0.20740792    -0.03200
H274        H  0.43011413  0.33328318  0.25993589     0.08900
H275        H  0.25001492  0.35138026  0.28912291     0.06900
Br276      Br  0.29608342  0.30082769  0.34079634    -0.03700
C277        C  0.66948371  0.27740801  0.34941988    -0.10300
C278        C  0.64183262  0.24586594  0.36896118     0.05900
C279        C  0.65260337  0.24712947  0.40049289    -0.04100
C280        C  0.68828093  0.28151045  0.41212653    -0.08500
C281        C  0.71188579  0.31679913  0.39294004     0.05000
C282        C  0.70321376  0.31336844  0.36115101    -0.03500
Br283      Br  0.73283750  0.35994461  0.33310615    -0.03200
H284        H  0.66101860  0.27770224  0.32516170     0.08900
H285        H  0.69349690  0.28413328  0.43670765     0.06900
Br286      Br  0.61645980  0.20540294  0.42861382    -0.03700
C287        C  0.48004914  0.23487748  0.21675235    -0.10300
C288        C  0.47043498  0.18520638  0.22529441     0.05900
C289        C  0.47519942  0.14655748  0.20318903    -0.04100
C290        C  0.48727612  0.15817093  0.17282415    -0.08500
C291        C  0.49636584  0.20805222  0.16398612     0.05000
C292        C  0.49358715  0.24654903  0.18660871    -0.03500
Br293      Br  0.51134502  0.31509023  0.17859299    -0.03200
H294        H  0.47961753  0.26453065  0.23404452     0.08900
H295        H  0.48849579  0.12794249  0.15591205     0.06900
Br296      Br  0.46503711  0.07747054  0.21338331    -0.03700
C297        C  0.46610644  0.23029944  0.46641895    -0.10300
C298        C  0.47484828  0.18090211  0.47551293     0.05900
C299        C  0.46718298  0.14127150  0.45440796    -0.04100
C300        C  0.45368790  0.15166484  0.42418787    -0.08500
C301        C  0.44584067  0.20133456  0.41473642     0.05000
C302        C  0.45066489  0.24078597  0.43664923    -0.03500
Br303      Br  0.43357418  0.30941057  0.42840368    -0.00800
H304        H  0.46852713  0.26072212  0.48310867     0.08900
H305        H  0.45062656  0.12078235  0.40787551     0.06900
Br306      Br  0.47563902  0.07251448  0.46582720    -0.03700
C307        C  0.95428668  0.53508669  0.19070471    -0.10300
C308        C  0.92334485  0.49488723  0.18219173     0.05900
C309        C  0.94677210  0.44851477  0.17416818    -0.04100
C310        C  0.99917575  0.44213156  0.17759908    -0.08500
C311        C  0.02987268  0.48139568  0.18850747     0.05000
C312        C  0.00654764  0.52922508  0.19382825    -0.03500
Br313      Br  0.04127486  0.58941804  0.20675266    -0.03200
H314        H  0.93734643  0.57093240  0.19673247     0.08900
H315        H  0.01575131  0.40587937  0.17223421     0.06900
Br316      Br  0.90952818  0.39234398  0.15790776    -0.03700
C317        C  0.61592637  0.39956177  0.25180463    -0.10300
C318        C  0.64102826  0.38243003  0.22534970     0.05900
C319        C  0.63961028  0.33060790  0.21803354    -0.04100
C320        C  0.61481126  0.29713275  0.23766690    -0.08500
C321        C  0.59138830  0.31401978  0.26495735     0.05000
C322        C  0.59155870  0.36649928  0.27156693    -0.03500
Br323      Br  0.56022440  0.39774843  0.30691164    -0.03200
H324        H  0.61675793  0.43919314  0.25787228     0.08900
H325        H  0.61436167  0.25752996  0.23161264     0.06900
Br326      Br  0.66914073  0.30343811  0.18112455    -0.03700
C327        C  0.73364019  0.48339791  0.29964572    -0.10300
C328        C  0.78377800  0.47765183  0.29000190     0.05900
C329        C  0.82281871  0.48737285  0.31094918    -0.04100
C330        C  0.81118991  0.50103017  0.34132024    -0.08500
C331        C  0.76079136  0.50693314  0.35121502     0.05000
C332        C  0.72177105  0.49871853  0.32959012    -0.03500
Br333      Br  0.65144338  0.51011269  0.33823153    -0.03200
H334        H  0.70339568  0.47873942  0.28319100     0.08900
H335        H  0.84186344  0.50614857  0.35737056     0.06900
Br336      Br  0.89245059  0.48177168  0.29902576    -0.03700
C337        C  0.72178612  0.49620236  0.05194012    -0.10300
C338        C  0.77148626  0.49423693  0.04086625     0.05900
C339        C  0.81011380  0.47894926  0.06065069    -0.04100
C340        C  0.79879057  0.46637395  0.09091917    -0.08500
C341        C  0.74893880  0.46768302  0.10224427     0.05000
C342        C  0.71001115  0.48258767  0.08208122    -0.03500
Br343      Br  0.63956265  0.48277465  0.09286625    -0.03200
H344        H  0.69144948  0.50549631  0.03647957     0.08900
H345        H  0.82958153  0.45605985  0.10574982     0.06900
Br346      Br  0.87926082  0.47459683  0.04741084    -0.03700
C347        C  0.63407730  0.66227042  0.30190842    -0.10300
C348        C  0.58335535  0.64600000  0.30247791     0.05900
C349        C  0.57103515  0.60136865  0.28613709    -0.04100
C350        C  0.60714034  0.57806549  0.26729615    -0.08500
C351        C  0.65641384  0.59697759  0.26469592     0.05000
C352        C  0.67058327  0.63790242  0.28358946    -0.03500
Br353      Br  0.73778504  0.66483872  0.28366837    -0.03200
H354        H  0.64519023  0.69542186  0.31484136     0.08900
H355        H  0.59618810  0.54524344  0.25395297     0.06900
Br356      Br  0.50592803  0.56990910  0.28710964    -0.03700
C357        C  0.45209818  0.95750741  0.10022325    -0.10300
C358        C  0.49620841  0.93729387  0.08639615     0.05900
C359        C  0.52787029  0.96997374  0.07013043    -0.04100
C360        C  0.51514426  0.02081642  0.06766541    -0.08500
C361        C  0.47042150  0.04127103  0.08076721     0.05000
C362        C  0.43909239  0.00869131  0.09762159    -0.03500
Br363      Br  0.37808786  0.03128758  0.11718960    -0.03200
H364        H  0.42647378  0.93275648  0.11223203     0.08900
H365        H  0.54010968  0.04415467  0.05420940     0.06900
Br366      Br  0.58565747  0.94638133  0.04742073    -0.03700
C367        C  0.39300092  0.63791593  0.02005492    -0.10300
C368        C  0.37705258  0.65783216  0.04822878     0.05900
C369        C  0.32628913  0.65168301  0.05734231    -0.04100
C370        C  0.29255216  0.62571005  0.03807278    -0.08500
C371        C  0.30824479  0.60675050  0.00924055     0.05000
C372        C  0.35956314  0.61372869  0.00032646    -0.03500
Br373      Br  0.38830274  0.59523245  0.96108246    -0.03200
H374        H  0.43172323  0.64328159  0.01259280     0.08900
H375        H  0.25514030  0.61299501  0.54527722     0.06900
Br376      Br  0.30173594  0.67644742  0.09614836    -0.03700
C377        C  0.57746010  0.61166183  0.01283240    -0.10300
C378        C  0.59202636  0.66248153  0.01186945     0.05900
C379        C  0.63130066  0.67421990  0.49051731    -0.04100
C380        C  0.65460694  0.63828892  0.47137484    -0.08500
C381        C  0.64175720  0.58701451  0.47273228     0.05000
C382        C  0.59790735  0.57572850  0.99262203    -0.03500
Br383      Br  0.57459378  0.50785348  0.99729314    -0.03200
H384        H  0.55030051  0.59938672  0.02983169     0.08900
H385        H  0.68406627  0.65052864  0.45583556     0.06900
Br386      Br  0.65301178  0.74262954  0.48627632    -0.03700
C387        C  0.68395768  0.69780217  0.10731548    -0.10300
C388        C  0.65017791  0.72607290  0.12560702     0.05900
C389        C  0.65343175  0.72248031  0.15773077    -0.04100
C390        C  0.68722374  0.68848813  0.17084268    -0.08500
C391        C  0.71647671  0.65591548  0.15235616     0.05000
C392        C  0.71598768  0.66210931  0.12037965    -0.03500
Br393      Br  0.75409180  0.61849634  0.09364874    -0.03200
H394        H  0.68117750  0.69906454  0.08256884     0.08900
H395        H  0.68624595  0.68345749  0.19545087     0.06900
Br396      Br  0.60824741  0.75895535  0.18436181    -0.03700
C397        C  0.48703473  0.73797830  0.47302226    -0.10300
C398        C  0.47826679  0.78764133  0.48262696     0.05900
C399        C  0.48232975  0.82642961  0.46130570    -0.04100
C400        C  0.49241345  0.81486865  0.43049421    -0.08500
C401        C  0.50040153  0.76493970  0.42055906     0.05000
C402        C  0.49872678  0.72634997  0.44245930    -0.03500
Br403      Br  0.51562202  0.65774426  0.43286127    -0.03200
H404        H  0.48744032  0.70833287  0.48975154     0.08900
H405        H  0.49271458  0.84504390  0.41415113     0.06900
Br406      Br  0.47369157  0.89547968  0.47330290    -0.03700
C407        C  0.46204436  0.81832117  0.18114102    -0.10300
C408        C  0.45672796  0.76863788  0.17018306     0.05900
C409        C  0.46319947  0.72875300  0.19094671    -0.04100
C410        C  0.47747875  0.73909231  0.22113974    -0.08500
C411        C  0.48338800  0.78858514  0.23172868     0.05000
C412        C  0.47432811  0.82842243  0.21171798    -0.03500
Br413      Br  0.47837916  0.89719829  0.22527677    -0.03200
H414        H  0.45755822  0.84959920  0.16579612     0.08900
H415        H  0.48090127  0.70833046  0.23701059     0.06900
Br416      Br  0.44967726  0.65956125  0.18075031    -0.03700
O417        O  0.51517665  0.82422613  0.02729840    -0.82900
C418        C  0.45428863  0.75507431  0.63719403     0.96400
O419        O  0.44241447  0.79090246  0.61970189    -0.72100
O420        O  0.46104999  0.85436112  0.57513132    -0.75600
Al421      Al  0.44134881  0.78588429  0.57624704     1.49000
C422        C  0.50042527  0.87737981  0.58302017     0.91700
O423        O  0.60496329  0.77021935  0.58879873    -0.81900
O424        O  0.55509496  0.67453472  0.56029939    -0.75400
Al425      Al  0.55434001  0.79319073  0.56018398     1.90100
O426        O  0.56397653  0.71676526  0.61765814    -0.74500
O427        O  0.45898373  0.67032806  0.56645161    -0.74300
O428        O  0.46680736  0.71250867  0.62604063    -0.80000
O429        O  0.40162808  0.72546129  0.57758304    -0.78200
O430        O  0.50298146  0.75919164  0.57638141    -1.14300
O431        O  0.44205180  0.78494580  0.03163644    -0.73500
C432        C  0.47762805  0.80244345  0.01517622     0.97200
C433        C  0.60406111  0.73930493  0.61062568     0.93600
Al434      Al  0.51041786  0.69840111  0.59154234     1.55600
O435        O  0.54167800  0.85324155  0.58539317    -0.78200
C436        C  0.41379508  0.68412681  0.56561278     0.97700
C437        C  0.57307554  0.69331791  0.53616085     0.92600
O438        O  0.57186713  0.74012827  0.53231860    -0.83500
O439        O  0.81981334  0.51168678  0.74513138    -0.82900
C440        C  0.74742226  0.45693688  0.63574174     0.96400
O441        O  0.78319194  0.44301873  0.65295017    -0.72100
O442        O  0.84933163  0.45942341  0.69679141    -0.75600
Al443      Al  0.78000009  0.44166501  0.69663160     1.49000
C444        C  0.87253024  0.49784852  0.68790683     0.91700
O445        O  0.76818556  0.60579224  0.68712211    -0.81900
O446        O  0.67363998  0.55886238  0.71446451    -0.75400
Al447      Al  0.79178668  0.55323498  0.71395996     1.90100
O448        O  0.71518404  0.56641301  0.65685614    -0.74500
O449        O  0.66422212  0.46349141  0.70696206    -0.74300
O450        O  0.70555173  0.47059368  0.64742925    -0.80000
O451        O  0.71797514  0.40481129  0.69599342    -0.78200
O452        O  0.75532055  0.50371638  0.69740399    -1.14300
O453        O  0.77655830  0.44120568  0.74070280    -0.73500
C454        C  0.79647785  0.47548164  0.75730439     0.97200
C455        C  0.73760869  0.60595296  0.66494767     0.93600
Al456      Al  0.69446472  0.51392326  0.68252038     1.55600
O457        O  0.84931648  0.53971648  0.68690554    -0.78200
C458        C  0.67649023  0.41801109  0.70747396     0.97700
C459        C  0.69337838  0.57428719  0.73916078     0.92600
O460        O  0.74036084  0.57056839  0.74321253    -0.83500
O461        O  0.56773428  0.23054415  0.77740219    -0.82900
C462        C  0.44749399  0.21144503  0.88109393     0.96400
O463        O  0.46199935  0.25384538  0.87157497    -0.72100
O464        O  0.55963008  0.24371005  0.86554110    -0.75600
Al465      Al  0.50876336  0.26761973  0.83918757     1.49000
C466        C  0.60083500  0.22573486  0.85595545     0.91700
O467        O  0.53728415  0.11365450  0.82667276    -0.81900
O468        O  0.43941415  0.19079734  0.77504475    -0.75400
Al469      Al  0.55083570  0.17525044  0.80331191     1.90100
O470        O  0.45688722  0.11557638  0.81605094    -0.74500
O471        O  0.40061088  0.24488328  0.82145769    -0.74300
O472        O  0.43661658  0.17632567  0.86226519    -0.80000
O473        O  0.46004590  0.29959490  0.81415736    -0.78200
O474        O  0.49991047  0.20868418  0.82083366    -1.14300
O475        O  0.55678667  0.29192655  0.81065095    -0.73500
C476        C  0.57150976  0.27657490  0.78469552     0.97200
C477        C  0.49509678  0.09083931  0.82341091     0.93600
Al478      Al  0.43795825  0.18358058  0.81885783     1.55600
O479        O  0.60195594  0.19748586  0.83231469    -0.78200
C480        C  0.41458614  0.28672143  0.81162136     0.97700
C481        C  0.47423140  0.17248073  0.75809978     0.92600
O482        O  0.51139707  0.15006452  0.76971365    -0.83500
O483        O  0.72789177  0.39437915  0.48678333    -0.82900
C484        C  0.74707045  0.51622397  0.88418445     0.96400
O485        O  0.70351283  0.50394020  0.89372519    -0.72100
O486        O  0.71230679  0.40716183  0.89961816    -0.75600
Al487      Al  0.68810111  0.45838030  0.92614588     1.49000
C488        C  0.73408613  0.36744022  0.90743434     0.91700
O489        O  0.84482978  0.43403508  0.93916161    -0.81900
O490        O  0.77129562  0.52240039  0.49092904    -0.75400
Al491      Al  0.78128933  0.41776914  0.96101969     1.90100
O492        O  0.83938080  0.51358251  0.95077995    -0.74500
O493        O  0.70902703  0.56632151  0.94359830    -0.74300
O494        O  0.78094518  0.52932517  0.90324854    -0.80000
O495        O  0.65465207  0.50744015  0.95137348    -0.78200
O496        O  0.74686499  0.46776213  0.94440891    -1.14300
O497        O  0.66308222  0.41159688  0.95456479    -0.73500
C498        C  0.68162808  0.39122371  0.47990260     0.97200
C499        C  0.86624711  0.47648883  0.94384130     0.93600
Al500      Al  0.77090093  0.52991863  0.94684044     1.55600
O501        O  0.76325061  0.36732054  0.93036782    -0.78200
C502        C  0.66699427  0.55279536  0.95406648     0.97700
C503        C  0.78898039  0.48696996  0.50692653     0.92600
O504        O  0.80980647  0.44934904  0.49414810    -0.83500
O505        O  0.44072096  0.15317969  0.02128761    -0.82900
C506        C  0.50481746  0.21533246  0.63032180     0.96400
O507        O  0.51779578  0.18066837  0.61155086    -0.72100
O508        O  0.49926404  0.11758126  0.56609262    -0.75600
Al509      Al  0.51662797  0.18637091  0.56817432     1.49000
C510        C  0.46231999  0.09285571  0.57609534     0.91700
O511        O  0.35278095  0.19602194  0.58458686    -0.81900
O512        O  0.39958281  0.29321698  0.55698786    -0.75400
Al513      Al  0.40368572  0.17432528  0.55505681     1.90100
O514        O  0.39303213  0.25045887  0.61358691    -0.74500
O515        O  0.49486163  0.30156194  0.56195508    -0.74300
O516        O  0.48983433  0.25760835  0.62072972    -0.80000
O517        O  0.55423980  0.24793216  0.56991728    -0.78200
O518        O  0.45426092  0.21060538  0.57052152    -1.14300
O519        O  0.51220402  0.19603831  0.02504699    -0.73500
C520        C  0.47745502  0.17602936  0.00893921     0.97200
C521        C  0.35332762  0.22712576  0.60679736     0.93600
Al522      Al  0.44519337  0.27087904  0.58715247     1.55600
O523        O  0.41996270  0.11506625  0.57979850    -0.78200
C524        C  0.54033824  0.28928564  0.55962027     0.97700
C525        C  0.38231337  0.27369750  0.53271767     0.92600
O526        O  0.38388135  0.22673920  0.52817330    -0.83500
O527        O  0.14892906  0.45394499  0.74935130    -0.82900
C528        C  0.20820926  0.51126854  0.63902541     0.96400
O529        O  0.17473560  0.52524979  0.65811300    -0.72100
O530        O  0.11467977  0.50832846  0.70453674    -0.75600
Al531      Al  0.18368182  0.52543287  0.70119892     1.49000
C532        C  0.08980716  0.47153046  0.69457823     0.91700
O533        O  0.19209968  0.36215985  0.68607837    -0.81900
O534        O  0.28909134  0.40443414  0.70769498    -0.75400
Al535      Al  0.17244873  0.41364499  0.71546472     1.90100
O536        O  0.23943535  0.40221101  0.65303688    -0.74500
O537        O  0.30005713  0.50062954  0.70523878    -0.74300
O538        O  0.25191116  0.49970242  0.64827182    -0.80000
O539        O  0.24660712  0.56085580  0.69856054    -0.78200
O540        O  0.20739351  0.46316549  0.69870934    -1.14300
O541        O  0.19156461  0.52493742  0.74451665    -0.73500
C542        C  0.17152113  0.49142234  0.76107516     0.97200
C543        C  0.21945464  0.36208735  0.66220282     0.93600
Al544      Al  0.26568084  0.45267665  0.67984640     1.55600
O545        O  0.11167752  0.42898950  0.69167147    -0.78200
C546        C  0.28830629  0.54611127  0.70862782     0.97700
C547        C  0.27381385  0.38917885  0.73329638     0.92600
O548        O  0.22794810  0.39478913  0.74112800    -0.83500
O549        O  0.22515401  0.57652351  0.49295790    -0.82900
C550        C  0.20643446  0.46325570  0.88871253     0.96400
O551        O  0.24894071  0.47633158  0.89916630    -0.72100
O552        O  0.24192945  0.57306335  0.90837349    -0.75600
Al553      Al  0.26293298  0.51940590  0.93325094     1.49000
C554        C  0.22147479  0.61328923  0.91752218     0.91700
O555        O  0.10871076  0.55034043  0.94378311    -0.81900
O556        O  0.18859845  0.44253233  0.49344554    -0.75400
Al557      Al  0.16955029  0.56182446  0.96829201     1.90100
O558        O  0.10720290  0.46950517  0.95199382    -0.74500
O559        O  0.23660987  0.41131148  0.94758609    -0.74300
O560        O  0.17052902  0.45164535  0.90666153    -0.80000
O561        O  0.29349102  0.46772418  0.95663196    -0.78200
O562        O  0.20281040  0.51111809  0.95032256    -1.14300
O563        O  0.28709760  0.56358208  0.96355890    -0.73500
C564        C  0.27185077  0.57950675  0.48674455     0.97200
C565        C  0.08468630  0.50878275  0.94432972     0.93600
Al566      Al  0.17578156  0.44988583  0.95000596     1.55600
O567        O  0.19214421  0.61351181  0.94052501    -0.78200
C568        C  0.27972925  0.42260049  0.95732338     0.97700
C569        C  0.16982820  0.47646224  0.51096517     0.92600
O570        O  0.14812697  0.51449855  0.49996579    -0.83500
O571        O  0.39497960  0.73698565  0.78181236    -0.82900
C572        C  0.50936989  0.75456431  0.88745724     0.96400
O573        O  0.49372808  0.71229652  0.87756330    -0.72100
O574        O  0.39687168  0.71885732  0.86830509    -0.75600
Al575      Al  0.45142229  0.69727128  0.84306417     1.49000
C576        C  0.35735261  0.74054916  0.85975374     0.91700
O577        O  0.42403854  0.85081880  0.83451588    -0.81900
O578        O  0.52391986  0.77565940  0.78151468    -0.75400
Al579      Al  0.41142095  0.79101757  0.80939903     1.90100
O580        O  0.50521228  0.85102810  0.82450296    -0.74500
O581        O  0.56156592  0.72078643  0.82662031    -0.74300
O582        O  0.52330903  0.78836249  0.86896399    -0.80000
O583        O  0.50327595  0.66530963  0.81943952    -0.78200
O584        O  0.46145034  0.75673506  0.82640822    -1.14300
O585        O  0.40761689  0.67304461  0.81184597    -0.73500
C586        C  0.39187643  0.69048257  0.78688413     0.97200
C587        C  0.46591279  0.87430934  0.83262230     0.93600
Al588      Al  0.52373159  0.78202060  0.82551446     1.55600
O589        O  0.35854898  0.76966992  0.83714530    -0.78200
C590        C  0.54868997  0.67801182  0.81703571     0.97700
C591        C  0.48956897  0.79450058  0.76506454     0.92600
O592        O  0.45247125  0.81703460  0.77723061    -0.83500
C593        C  0.30313548  0.72630290  0.90588785    -0.10300
C594        C  0.30871418  0.72501153  0.87390638     0.05900
C595        C  0.27373175  0.69646322  0.85658528    -0.04100
C596        C  0.24063199  0.66325238  0.87124462    -0.08500
C597        C  0.23866086  0.66070491  0.90325786     0.05000
C598        C  0.26684802  0.69621405  0.92048948    -0.03500
Br599      Br  0.26112769  0.70197468  0.96416566    -0.03200
H600        H  0.32884371  0.74868151  0.91963886     0.08900
H601        H  0.21874729  0.63698726  0.85755749     0.06900
Br602      Br  0.27299850  0.69657536  0.81276900    -0.03700
C603        C  0.37506677  0.60307270  0.76880474    -0.10300
C604        C  0.36908807  0.65488331  0.76407895     0.05900
C605        C  0.33989215  0.67015571  0.73883096    -0.04100
C606        C  0.31605198  0.63395639  0.72021045    -0.08500
C607        C  0.32111087  0.58221811  0.72560786     0.05000
C608        C  0.35236216  0.56704286  0.74982725    -0.03500
Br609      Br  0.36312487  0.49813720  0.76031431    -0.03200
H610        H  0.39666771  0.59003825  0.78806067     0.08900
H611        H  0.29224339  0.64649857  0.70176065     0.06900
Br612      Br  0.32765676  0.73924997  0.72928574    -0.03700
C613        C  0.22876697  0.48260567  0.80395758    -0.10300
C614        C  0.17954838  0.49107604  0.79402853     0.05900
C615        C  0.13903886  0.48697302  0.81471350    -0.04100
C616        C  0.14840320  0.47569061  0.84528578    -0.08500
C617        C  0.19783159  0.46696076  0.85547346     0.05000
C618        C  0.23832012  0.46989806  0.83421752    -0.03500
Br619      Br  0.30712087  0.45409750  0.84396339    -0.03200
H620        H  0.25968817  0.48299960  0.78758012     0.08900
H621        H  0.11693135  0.47490169  0.86123648     0.06900
Br622      Br  0.07063647  0.49717819  0.80212473    -0.03700
C623        C  0.13952448  0.50158783  0.56264454    -0.10300
C624        C  0.17566076  0.47604866  0.54455469     0.05900
C625        C  0.22132616  0.46191401  0.55813121    -0.04100
C626        C  0.23119066  0.47555391  0.58837246    -0.08500
C627        C  0.19607106  0.50275624  0.60626826     0.05000
C628        C  0.14902169  0.51480547  0.59320349    -0.03500
Br629      Br  0.09643136  0.55058113  0.61472445    -0.03200
H630        H  0.10423866  0.51315482  0.55253915     0.08900
H631        H  0.26697342  0.46426799  0.59791604     0.06900
Br632      Br  0.27387624  0.42705972  0.53675264    -0.03700
C633        C  0.28997997  0.33459595  0.97502766    -0.10300
C634        C  0.31126730  0.38284583  0.97156863     0.05900
C635        C  0.35810771  0.39304163  0.98585365    -0.04100
C636        C  0.38420994  0.35477453  0.50536591    -0.08500
C637        C  0.36147607  0.30752165  0.50934927     0.05000
C638        C  0.31863183  0.29512205  0.49198439    -0.03500
Br639      Br  0.28338494  0.23257648  0.49633960    -0.03200
H640        H  0.25423830  0.32542057  0.96444277     0.08900
H641        H  0.41800524  0.36438190  0.51801479     0.06900
Br642      Br  0.39319245  0.45601421  0.98298768    -0.03700
C643        C  0.26870871  0.26632595  0.60465092    -0.10300
C644        C  0.30624491  0.24360276  0.62248626     0.05900
C645        C  0.30549786  0.25207810  0.65441988    -0.04100
C646        C  0.27120496  0.28630259  0.66749013    -0.08500
C647        C  0.23826353  0.31394255  0.64912008     0.05000
C648        C  0.23535543  0.30189417  0.61769646    -0.03500
Br649      Br  0.18873147  0.33570155  0.59175576    -0.03200
H650        H  0.26892561  0.26074843  0.58000092     0.08900
H651        H  0.27412008  0.29524181  0.69172165     0.06900
Br652      Br  0.35467672  0.22228568  0.68058946    -0.03700
C653        C  0.95466960  0.45251378  0.92652097    -0.10300
C654        C  0.92243979  0.48566723  0.94242866     0.05900
C655        C  0.94478868  0.52913256  0.95654459    -0.04100
C656        C  0.99689368  0.53819433  0.95426224    -0.08500
C657        C  0.02904761  0.50438838  0.93920437     0.05000
C658        C  0.00718323  0.46122344  0.92502401    -0.03500
Br659      Br  0.04712903  0.41252111  0.90301372    -0.03200
H660        H  0.93909742  0.41947537  0.91532357     0.08900
H661        H  0.01288476  0.57032568  0.96624812     0.06900
Br662      Br  0.90876720  0.57656529  0.98224810    -0.03700
C663        C  0.55976041  0.33705331  0.51328610    -0.10300
C664        C  0.57588209  0.32026519  0.54178372     0.05900
C665        C  0.62407475  0.33100479  0.04997552    -0.04100
C666        C  0.65757948  0.35445091  0.02958469    -0.08500
C667        C  0.64445197  0.36726217  0.50099099     0.05000
C668        C  0.59316840  0.35940566  0.49271741    -0.03500
Br669      Br  0.56481011  0.37473950  0.45342479    -0.03200
H670        H  0.52115583  0.33035588  0.50624708     0.08900
H671        H  0.69590793  0.36167861  0.03692392     0.06900
Br672      Br  0.64848549  0.31322911  0.08963180    -0.03700
C673        C  0.52009893  0.00648772  0.84500437    -0.10300
C674        C  0.48742715  0.03519016  0.82710249     0.05900
C675        C  0.44516221  0.01007449  0.81359169    -0.04100
C676        C  0.43651266  0.95887573  0.81841584    -0.08500
C677        C  0.46971064  0.93010437  0.83548892     0.05000
C678        C  0.51189912  0.95454763  0.84898107    -0.03500
Br679      Br  0.55946626  0.91880764  0.87332891    -0.03200
H680        H  0.55219994  0.02435700  0.85587387     0.08900
H681        H  0.40530630  0.94056311  0.80682163     0.06900
Br682      Br  0.39902576  0.04065904  0.78553781    -0.03700
C683        C  0.39611903  0.33847523  0.76693966    -0.10300
C684        C  0.37885207  0.31768909  0.79430839     0.05900
C685        C  0.32721327  0.32144881  0.80198452    -0.04100
C686        C  0.29387484  0.34544998  0.78213646    -0.08500
C687        C  0.31071929  0.36482341  0.75400090     0.05000
C688        C  0.36299585  0.36093724  0.74657692    -0.03500
Br689      Br  0.39374613  0.38313064  0.70898080    -0.03200
H690        H  0.43552699  0.33494381  0.76054125     0.08900
H691        H  0.25450622  0.34829273  0.78863365     0.06900
Br692      Br  0.30034709  0.29548555  0.83952807    -0.03700
C693        C  0.67608590  0.27913547  0.84907156    -0.10300
C694        C  0.64814977  0.24757533  0.86847488     0.05900
C695        C  0.65814934  0.24931640  0.90011140    -0.04100
C696        C  0.69306202  0.28427874  0.91197295    -0.08500
C697        C  0.71669373  0.31969024  0.89290706     0.05000
C698        C  0.70911939  0.31562224  0.86103012    -0.03500
Br699      Br  0.73909468  0.36231868  0.83321942    -0.03200
H700        H  0.66822026  0.27911548  0.82473142     0.08900
H701        H  0.69734010  0.28742348  0.93660638     0.06900
Br702      Br  0.62157529  0.20772539  0.92810305    -0.03700
C703        C  0.48589642  0.23220262  0.71630725    -0.10300
C704        C  0.47658352  0.18262193  0.72511224     0.05900
C705        C  0.48117067  0.14369605  0.70317132    -0.04100
C706        C  0.49265456  0.15498581  0.67267690    -0.08500
C707        C  0.50144392  0.20478149  0.66358525     0.05000
C708        C  0.49906432  0.24352242  0.68607336    -0.03500
Br709      Br  0.51698189  0.31193270  0.67775800    -0.03200
H710        H  0.48549746  0.26210975  0.73346878     0.08900
H711        H  0.49361022  0.12458230  0.65586496     0.06900
Br712      Br  0.47142889  0.07471890  0.71375017    -0.03700
C713        C  0.46356860  0.23287678  0.96635601    -0.10300
C714        C  0.47469210  0.18421735  0.97591450     0.05900
C715        C  0.47107472  0.14391865  0.95491484    -0.04100
C716        C  0.45922548  0.15309226  0.92430633    -0.08500
C717        C  0.44919993  0.20209978  0.91439255     0.05000
C718        C  0.44994014  0.24205185  0.93611420    -0.03500
Br719      Br  0.42948696  0.30933160  0.92675437    -0.00800
H720        H  0.46286835  0.26356472  0.98293046     0.08900
H721        H  0.45929676  0.12192465  0.90807774     0.06900
Br722      Br  0.48292220  0.07603868  0.96707885    -0.03700
C723        C  0.95921766  0.53382136  0.68958479    -0.10300
C724        C  0.92811784  0.49301286  0.68255774     0.05900
C725        C  0.95140364  0.44607872  0.67563764    -0.04100
C726        C  0.00388495  0.44003569  0.67869697    -0.08500
C727        C  0.03478433  0.48010114  0.68813063     0.05000
C728        C  0.01155657  0.52824045  0.69232775    -0.03500
Br729      Br  0.04657806  0.58936673  0.70308463    -0.03200
H730        H  0.94240479  0.57007214  0.69471218     0.08900
H731        H  0.02036584  0.40342589  0.67427844     0.06900
Br732      Br  0.91402395  0.38847400  0.66148996    -0.03700
C733        C  0.61411110  0.39885215  0.74800342    -0.10300
C734        C  0.64447888  0.38115895  0.72378715     0.05900
C735        C  0.64699239  0.32883774  0.71807229    -0.04100
C736        C  0.62199875  0.29558354  0.73766498    -0.08500
C737        C  0.59411609  0.31323355  0.76312303     0.05000
C738        C  0.58897745  0.36593814  0.76748973    -0.03500
Br739      Br  0.54829976  0.39730857  0.79903827    -0.03200
H740        H  0.61122175  0.43887379  0.75260528     0.08900
H741        H  0.62523336  0.25558006  0.73320046     0.06900
Br742      Br  0.68256756  0.30026050  0.68356232    -0.03700
C743        C  0.73493806  0.48423780  0.79916016    -0.10300
C744        C  0.78560122  0.47945867  0.79035389     0.05900
C745        C  0.82346390  0.49075556  0.81182393    -0.04100
C746        C  0.81022669  0.50494293  0.84189457    -0.08500
C747        C  0.75928218  0.50962367  0.85097625     0.05000
C748        C  0.72143045  0.49991635  0.82880203    -0.03500
Br749      Br  0.65045700  0.50942733  0.83624204    -0.03200
H750        H  0.70555766  0.47831613  0.78232172     0.08900
H751        H  0.84002597  0.51133898  0.85834798     0.06900
Br752      Br  0.89370261  0.48628014  0.80114346    -0.03700
C753        C  0.73137853  0.49131945  0.55150273    -0.10300
C754        C  0.78067147  0.48503443  0.54035428     0.05900
C755        C  0.81780014  0.46634712  0.56010783    -0.04100
C756        C  0.80555379  0.45553287  0.59056288    -0.08500
C757        C  0.75614248  0.46184432  0.60205792     0.05000
C758        C  0.71854520  0.47934236  0.58173663    -0.03500
Br759      Br  0.64837645  0.48633014  0.59244650    -0.03200
H760        H  0.70195039  0.50325467  0.53608890     0.08900
H761        H  0.83533793  0.44278066  0.60542150     0.06900
Br762      Br  0.88623558  0.45572326  0.54679232    -0.03700
C763        C  0.63834927  0.65792464  0.80292523    -0.10300
C764        C  0.58679256  0.64480458  0.80150500     0.05900
C765        C  0.57294621  0.60364242  0.78247106    -0.04100
C766        C  0.60898188  0.58037705  0.76358118    -0.08500
C767        C  0.65954384  0.59618843  0.76316950     0.05000
C768        C  0.67467280  0.63375351  0.78433934    -0.03500
Br769      Br  0.74326299  0.65633191  0.78771096    -0.03200
H770        H  0.65041077  0.68844477  0.81782058     0.08900
H771        H  0.59691570  0.55016127  0.74842769     0.06900
Br772      Br  0.50557777  0.57791371  0.77915386    -0.03700
C773        C  0.45147690  0.95371773  0.59974611    -0.10300
C774        C  0.49604022  0.93317186  0.58665547     0.05900
C775        C  0.52919403  0.96591758  0.57152850    -0.04100
C776        C  0.51718551  0.01698417  0.56913153    -0.08500
C777        C  0.47188511  0.03772722  0.58130086     0.05000
C778        C  0.43936128  0.00518541  0.59736817    -0.03500
Br779      Br  0.37804826  0.02827954  0.61634535    -0.03200
H780        H  0.42494088  0.92909404  0.61111087     0.08900
H781        H  0.54329353  0.04028825  0.55647283     0.06900
Br782      Br  0.58856328  0.94235770  0.55039632    -0.03700
C783        C  0.39176832  0.64005373  0.51796000    -0.10300
C784        C  0.37686515  0.65498764  0.54743651     0.05900
C785        C  0.32683926  0.64577693  0.55707886    -0.04100
C786        C  0.29308815  0.62085547  0.53726785    -0.08500
C787        C  0.30794761  0.60627506  0.50737826     0.05000
C788        C  0.35806914  0.61742120  0.49769679    -0.03500
Br789      Br  0.38395108  0.60732515  0.45668450    -0.03200
H790        H  0.42971883  0.64816259  0.51005175     0.08900
H791        H  0.25378572  0.62097419  0.04553825     0.06900
Br792      Br  0.30360214  0.66465840  0.59732482    -0.03700
C793        C  0.57969844  0.60837679  0.51221462    -0.10300
C794        C  0.59500049  0.65896209  0.51238304     0.05900
C795        C  0.62519080  0.67761307  0.98821448    -0.04100
C796        C  0.64669031  0.64145183  0.96848321    -0.08500
C797        C  0.63505597  0.59003407  0.97102487     0.05000
C798        C  0.60195631  0.57270938  0.49257864    -0.03500
Br799      Br  0.57687598  0.50519346  0.49565986    -0.03200
H800        H  0.55044642  0.59608551  0.52789326     0.08900
H801        H  0.67402511  0.65363358  0.95156522     0.06900
Br802      Br  0.64494560  0.74618655  0.98201067    -0.03700
C803        C  0.68470756  0.69354904  0.60639640    -0.10300
C804        C  0.65128894  0.72169212  0.62500526     0.05900
C805        C  0.65591988  0.71873406  0.65708140    -0.04100
C806        C  0.69108598  0.68578808  0.66990672    -0.08500
C807        C  0.72025094  0.65340788  0.65121823     0.05000
C808        C  0.71802825  0.65877685  0.61919830    -0.03500
Br809      Br  0.75545859  0.61511066  0.59212864    -0.03200
H810        H  0.68081516  0.69424472  0.58169291     0.08900
H811        H  0.69125014  0.68125773  0.69455754     0.06900
Br812      Br  0.61098641  0.75468871  0.68411341    -0.03700
C813        C  0.48592094  0.74117713  0.97300050    -0.10300
C814        C  0.48047490  0.79151012  0.98215856     0.05900
C815        C  0.48934850  0.82949079  0.96076130    -0.04100
C816        C  0.50097241  0.81666812  0.93031431    -0.08500
C817        C  0.50583789  0.76612758  0.92080189     0.05000
C818        C  0.49934724  0.72817845  0.94288101    -0.03500
Br819      Br  0.51147940  0.65823268  0.93433803    -0.03200
H820        H  0.48242133  0.71183864  0.98984347     0.08900
H821        H  0.50491125  0.84648435  0.91388985     0.06900
Br822      Br  0.48498739  0.89926052  0.97206245    -0.03700
C823        C  0.46565191  0.81411895  0.68117982    -0.10300
C824        C  0.45921162  0.76430803  0.67066465     0.05900
C825        C  0.46545075  0.72480940  0.69171453    -0.04100
C826        C  0.48031275  0.73561835  0.72178897    -0.08500
C827        C  0.48735109  0.78526615  0.73191187     0.05000
C828        C  0.47876300  0.82472883  0.71156365    -0.03500
Br829      Br  0.48473980  0.89373491  0.72435749    -0.03200
H830        H  0.46146304  0.84513016  0.66560667     0.08900
H831        H  0.48345680  0.70518797  0.73791316     0.06900
Br832      Br  0.45080342  0.65568463  0.68202140    -0.03700
loop_ 
_geom_bond_atom_site_label_1 
_geom_bond_atom_site_label_2 
_geom_bond_distance 
_geom_bond_site_symmetry_2 
_ccdc_geom_bond_type 
O1           C16   1.267       .  A
O1         Al425   1.918       .  S
C2           O12   1.269       .  A
C2            O3   1.272       .  A
C2          C408   1.483       .  S
O3           Al5   1.902       .  S
O4            C6   1.257       .  A
O4           Al5   1.894       .  S
Al5          O13   1.920       .  S
Al5         O431   1.920       .  S
Al5          O14   1.781       .  S
C6           O19   1.276       .  A
C6          C358   1.493       .  S
O7           C17   1.268       .  A
O7           Al9   1.947       .  S
O8           C21   1.263       .  A
O8          Al18   1.903       .  S
Al9          O22   1.907       .  S
Al9          O19   1.956       .  S
Al9         O417   1.917       .  S
Al9          O14   1.781       .  S
O10          C17   1.256       .  A
O10         Al18   1.883       .  S
O11          C20   1.254       .  A
O11         Al18   1.894       .  S
O12         Al18   1.918       .  S
O13          C20   1.254       .  A
O14         Al18   1.769       .  S
O15          C16   1.273       .  A
O15        Al421   1.918       .  S
C16         C398   1.465       .  S
C17         C388   1.483       .  S
C20         C368   1.475       .  S
C21          O22   1.261       .  A
C21         C378   1.490       .  S
O23          C38   1.266       .  A
O23         Al31   1.918       .  S
C24          O34   1.269       .  A
C24          O25   1.272       .  A
C24         C341   1.492       .  S
O25         Al27   1.906       .  S
O26          C28   1.258       .  A
O26         Al27   1.899       .  S
Al27         O35   1.919       .  S
Al27         O37   1.923       .  S
Al27         O36   1.780       .  S
C28          O41   1.275       .  A
C28         C308   1.496       .  S
O29          C39   1.266       .  A
O29         Al31   1.941       .  S
O30          C43   1.263       .  A
O30         Al40   1.899       .  S
Al31         O44   1.914       .  S
Al31         O41   1.950       .  S
Al31         O36   1.782       .  S
O32          C39   1.257       .  A
O32         Al40   1.885       .  S
O33          C42   1.255       .  A
O33         Al40   1.902       .  S
O34         Al40   1.924       .  S
O35          C42   1.254       .  A
O36         Al40   1.767       .  S
O37          C38   1.273       .  A
C38         C328   1.469       .  S
C39         C391   1.481       .  S
C42         C318   1.484       .  S
C43          O44   1.263       .  A
C43         C351   1.484       .  S
O45          C60   1.267       .  A
O45         Al53   1.928       .  S
C46          O56   1.271       .  A
C46          O47   1.267       .  A
C46         C301   1.483       .  S
O47         Al49   1.913       .  S
O48          C50   1.260       .  A
O48         Al49   1.896       .  S
Al49         O57   1.909       .  S
Al49         O59   1.891       .  S
Al49         O58   1.767       .  S
C50          O63   1.268       .  A
C50         C278   1.484       .  S
O51          C61   1.279       .  A
O51         Al53   1.976       .  S
O52          C65   1.273       .  A
O52         Al62   1.926       .  S
Al53         O66   1.918       .  S
Al53         O63   1.942       .  S
Al53         O58   1.779       .  S
O54          C61   1.255       .  A
O54         Al62   1.886       .  S
O55          C64   1.255       .  A
O55         Al62   1.915       .  S
O56         Al62   1.913       .  S
O57          C64   1.258       .  A
O58         Al62   1.774       .  S
O59          C60   1.257       .  A
C60         C321   1.493       .  S
C61         C258   1.508       .  S
C64         C268   1.476       .  S
C65          O66   1.266       .  A
C65         C288   1.470       .  S
O67          C82   1.265       .  A
O67        Al491   1.922       .  S
C68          O78   1.271       .  A
C68          O69   1.266       .  A
C68         C331   1.489       .  S
O69         Al71   1.913       .  S
O70          C72   1.258       .  A
O70         Al71   1.890       .  S
Al71         O79   1.902       .  S
Al71         O81   1.891       .  S
Al71         O80   1.768       .  S
C72          O85   1.267       .  A
C72         C281   1.487       .  S
O73          C83   1.278       .  A
O73         Al75   1.962       .  S
O74          C87   1.276   1_556  A
O74        Al500   1.930       .  S
Al75         O85   1.943       .  S
Al75        O483   1.922       .  S
Al75        O504   1.913       .  S
Al75         O80   1.778       .  S
O76          C83   1.257       .  A
O76         Al84   1.896       .  S
O77          C86   1.258       .  A
O77         Al84   1.920       .  S
O78         Al84   1.917       .  S
O79          C86   1.255       .  A
O80         Al84   1.777       .  S
O81         C498   1.258       .  A
C82         O497   1.257       .  A
C82         C251   1.493   1_556  S
C83         C238   1.497       .  S
Al84        O490   1.928       .  S
C86         C381   1.491       .  S
C87          O88   1.267   1_554  A
C87         C338   1.472       .  S
O88        Al491   1.910       .  S
O89         C104   1.267       .  A
O89        Al513   1.919       .  S
C90         O100   1.273       .  A
C90          O91   1.272       .  A
C90         C291   1.485       .  S
O91         Al93   1.900       .  S
O92          C94   1.256       .  A
O92         Al93   1.884       .  S
Al93        O101   1.917       .  S
Al93        O519   1.917       .  S
Al93        O102   1.779       .  S
C94         O107   1.276       .  A
C94         C361   1.508       .  S
O95         C105   1.266       .  A
O95         Al97   1.938       .  S
O96         C109   1.261       .  A
O96        Al106   1.894       .  S
Al97        O110   1.915       .  S
Al97        O107   1.974       .  S
Al97        O505   1.919       .  S
Al97        O102   1.782       .  S
O98         C105   1.257       .  A
O98        Al106   1.880       .  S
O99         C108   1.253       .  A
O99        Al106   1.905       .  S
O100       Al106   1.931       .  S
O101        C108   1.252       .  A
O102       Al106   1.768       .  S
O103        C104   1.274       .  A
O103       Al509   1.923       .  S
C104        C298   1.467       .  S
C105        C228   1.482       .  S
C108        C248   1.478       .  S
C109        O110   1.264       .  A
C109        C221   1.481       .  S
O111        C126   1.267       .  A
O111       Al119   1.917       .  S
C112        O122   1.269       .  A
C112        O113   1.265       .  A
C112        C211   1.479       .  S
O113       Al115   1.893       .  S
O114        C116   1.255       .  A
O114       Al115   1.892       .  S
Al115       O123   1.916       .  S
Al115       O125   1.904       .  S
Al115       O124   1.775       .  S
C116        O129   1.278       .  A
C116        C311   1.507       .  S
O117        C127   1.265       .  A
O117       Al119   1.934       .  S
O118        C131   1.259       .  A
O118       Al128   1.893       .  S
Al119       O132   1.924       .  S
Al119       O129   1.970       .  S
Al119       O124   1.773       .  S
O120        C127   1.260       .  A
O120       Al128   1.902       .  S
O121        C130   1.257       .  A
O121       Al128   1.910       .  S
O122       Al128   1.911       .  S
O123        C130   1.258       .  A
O124       Al128   1.765       .  S
O125        C126   1.270       .  A
C126        C198   1.458       .  S
C127        C231   1.482       .  S
C130        C191   1.488       .  S
C131        O132   1.269       .  A
C131        C271   1.492       .  S
O133        C148   1.268       .  A
O133       Al557   1.933       .  S
C134        O144   1.271       .  A
C134        O135   1.267       .  A
C134        C201   1.477       .  S
O135       Al137   1.910       .  S
O136        C138   1.260       .  A
O136       Al137   1.890       .  S
Al137       O145   1.915       .  S
Al137       O147   1.868       .  S
Al137       O146   1.769       .  S
C138        O151   1.265       .  A
C138        C181   1.483       .  S
O139        C149   1.277       .  A
O139       Al141   1.979       .  S
O140        C153   1.271   1_556  A
O140       Al566   1.914       .  S
Al141       O151   1.933       .  S
Al141       O549   1.935       .  S
Al141       O570   1.908       .  S
Al141       O146   1.784       .  S
O142        C149   1.250       .  A
O142       Al150   1.875       .  S
O143        C152   1.253       .  A
O143       Al150   1.906       .  S
O144       Al150   1.902       .  S
O145        C152   1.255       .  A
O146       Al150   1.776       .  S
O147        C564   1.254       .  A
C148        O563   1.254       .  A
C148        C371   1.492   1_556  S
C149        C241   1.510       .  S
Al150       O556   1.921       .  S
C152        C218   1.493       .  S
C153        O154   1.266       .  A
C153        C208   1.472       .  S
O154       Al557   1.906   1_554  S
O155        C170   1.264       .  A
O155       Al163   1.913       .  S
C156        O166   1.269       .  A
C156        O157   1.270       .  A
C156        C401   1.482       .  S
O157       Al159   1.921       .  S
O158        C160   1.258       .  A
O158       Al159   1.894       .  S
Al159       O167   1.904       .  S
Al159       O169   1.901       .  S
Al159       O168   1.772       .  S
C160        O173   1.264       .  A
C160        C178   1.486       .  S
O161        C171   1.277       .  A
O161       Al163   1.953       .  S
O162        C175   1.271       .  A
O162       Al172   1.923       .  S
Al163       O176   1.906       .  S
Al163       O173   1.938       .  S
Al163       O168   1.786       .  S
O164        C171   1.260       .  A
O164       Al172   1.905       .  S
O165        C174   1.255       .  A
O165       Al172   1.917       .  S
O166       Al172   1.897       .  S
O167        C174   1.253       .  A
O168       Al172   1.781       .  S
O169        C170   1.264       .  A
C170        C188   1.493       .  S
C171        C261   1.495       .  S
C174        C348   1.496       .  S
C175        O176   1.262       .  A
C175        C411   1.463       .  S
C177        C178   1.402       .  A
C177        C182   1.405       .  A
C177        H184   1.083       .  S
C178        C179   1.414       .  A
C179        C180   1.402       .  A
C179       Br186   1.911       .  S
C180        C181   1.400       .  A
C180        H185   1.084       .  S
C181        C182   1.415       .  A
C182       Br183   1.915       .  S
C187        C188   1.407       .  A
C187        C192   1.397       .  A
C187        H194   1.080       .  S
C188        C189   1.414       .  A
C189        C190   1.403       .  A
C189       Br196   1.921       .  S
C190        C191   1.408       .  A
C190        H195   1.083       .  S
C191        C192   1.412       .  A
C192       Br193   1.921       .  S
C197        C198   1.398       .  A
C197        C202   1.394       .  A
C197        H204   1.084       .  S
C198        C199   1.403       .  A
C199        C200   1.396       .  A
C199       Br206   1.919       .  S
C200        C201   1.407       .  A
C200        H205   1.083       .  S
C201        C202   1.417       .  A
C202       Br203   1.924       .  S
C207        C208   1.406       .  A
C207        C212   1.399       .  A
C207        H214   1.084       .  S
C208        C209   1.405       .  A
C209        C210   1.387       .  A
C209       Br216   1.906       .  S
C210        C211   1.405       .  A
C210        H215   1.083       .  S
C211        C212   1.414       .  A
C212       Br213   1.922       .  S
C217        C218   1.412       .  A
C217        C638   1.398       .  A
C217        H224   1.083       .  S
C218        C219   1.416       .  A
C219        C636   1.401       .  A
C219       Br226   1.923       .  S
C220        C221   1.405       .  A
C220        C635   1.400   1_554  A
C220        H225   1.084       .  S
C221        C222   1.406   1_554  A
C222        C633   1.401       .  A
C222       Br223   1.919   1_556  S
C227        C228   1.410       .  A
C227        C232   1.408       .  A
C227        H234   1.084       .  S
C228        C229   1.408       .  A
C229        C230   1.401       .  A
C229       Br236   1.918       .  S
C230        C231   1.406       .  A
C230        H235   1.084       .  S
C231        C232   1.406       .  A
C232       Br233   1.916       .  S
C237        C238   1.394       .  A
C237        C242   1.404   1_655  A
C237        H244   1.084       .  S
C238        C239   1.422       .  A
C239        C240   1.411   1_655  A
C239       Br246   1.919       .  S
C240        C241   1.403       .  A
C240        H245   1.083       .  S
C241        C242   1.433       .  A
C242       Br243   1.927       .  S
C247        C248   1.398       .  A
C247        C252   1.396   1_554  A
C247        H254   1.084       .  S
C248        C665   1.409       .  A
C249        C250   1.404       .  A
C249        C664   1.409       .  A
C249       Br256   1.918       .  S
C250        C667   1.410       .  A
C250        H255   1.083       .  S
C251        C252   1.422   1_554  A
C251        C666   1.410       .  A
C252       Br253   1.926       .  S
C257        C258   1.405       .  A
C257        C262   1.413   1_545  A
C257        H264   1.083       .  S
C258        C259   1.430       .  A
C259        C260   1.403   1_545  A
C259       Br266   1.925       .  S
C260        C261   1.395       .  A
C260        H265   1.084       .  S
C261        C262   1.420       .  A
C262       Br263   1.917       .  S
C267        C268   1.398       .  A
C267        C272   1.396       .  A
C267        H274   1.082       .  S
C268        C269   1.409       .  A
C269        C270   1.403       .  A
C269       Br276   1.919       .  S
C270        C271   1.408       .  A
C270        H275   1.081       .  S
C271        C272   1.423       .  A
C272       Br273   1.926       .  S
C277        C278   1.407       .  A
C277        C282   1.403       .  A
C277        H284   1.084       .  S
C278        C279   1.407       .  A
C279        C280   1.407       .  A
C279       Br286   1.917       .  S
C280        C281   1.410       .  A
C280        H285   1.084       .  S
C281        C282   1.409       .  A
C282       Br283   1.918       .  S
C287        C288   1.402       .  A
C287        C292   1.400       .  A
C287        H294   1.085       .  S
C288        C289   1.406       .  A
C289        C290   1.400       .  A
C289       Br296   1.917       .  S
C290        C291   1.408       .  A
C290        H295   1.085       .  S
C291        C292   1.415       .  A
C292       Br293   1.921       .  S
C297        C298   1.400       .  A
C297        C302   1.397       .  A
C297        H304   1.084       .  S
C298        C299   1.406       .  A
C299        C300   1.400       .  A
C299       Br306   1.918       .  S
C300        C301   1.407       .  A
C300        H305   1.083       .  S
C301        C302   1.417       .  A
C302       Br303   1.923       .  S
C307        C308   1.395       .  A
C307        C312   1.402   1_655  A
C307        H314   1.084       .  S
C308        C309   1.421       .  A
C309        C310   1.409       .  A
C309       Br316   1.921       .  S
C310        C311   1.404   1_655  A
C310        H315   1.083   1_655  S
C311        C312   1.432       .  A
C312       Br313   1.926       .  S
C317        C318   1.399       .  A
C317        C322   1.396       .  A
C317        H324   1.085       .  S
C318        C319   1.413       .  A
C319        C320   1.404       .  A
C319       Br326   1.919       .  S
C320        C321   1.407       .  A
C320        H325   1.084       .  S
C321        C322   1.423       .  A
C322       Br323   1.926       .  S
C327        C328   1.399       .  A
C327        C332   1.397       .  A
C327        H334   1.086       .  S
C328        C329   1.407       .  A
C329        C330   1.402       .  A
C329       Br336   1.919       .  S
C330        C331   1.409       .  A
C330        H335   1.084       .  S
C331        C332   1.419       .  A
C332       Br333   1.923       .  S
C337        C338   1.400       .  A
C337        C342   1.402       .  A
C337        H344   1.084       .  S
C338        C339   1.408       .  A
C339        C340   1.398       .  A
C339       Br346   1.921       .  S
C340        C341   1.407       .  A
C340        H345   1.083       .  S
C341        C342   1.421       .  A
C342       Br343   1.922       .  S
C347        C348   1.412       .  A
C347        C352   1.404       .  A
C347        H354   1.083       .  S
C348        C349   1.416       .  A
C349        C350   1.397       .  A
C349       Br356   1.917       .  S
C350        C351   1.403       .  A
C350        H355   1.084       .  S
C351        C352   1.409       .  A
C352       Br353   1.919       .  S
C357        C358   1.415       .  A
C357        C362   1.413   1_565  A
C357        H364   1.083       .  S
C358        C359   1.404       .  A
C359        C360   1.402   1_565  A
C359       Br366   1.920       .  S
C360        C361   1.418       .  A
C360        H365   1.083       .  S
C361        C362   1.411       .  A
C362       Br363   1.917       .  S
C367        C368   1.395       .  A
C367        C372   1.391       .  A
C367        H374   1.084       .  S
C368        C369   1.410       .  A
C369        C370   1.406       .  A
C369       Br376   1.918       .  S
C370        C371   1.409       .  A
C370        H791   1.083       .  S
C371        C372   1.424       .  A
C372       Br373   1.927   1_554  S
H375        C786   1.083       .  S
C377        C378   1.408       .  A
C377        C382   1.399   1_554  A
C377        H384   1.083       .  S
C378        C795   1.413   1_554  A
C379        C380   1.402       .  A
C379        C794   1.413       .  A
C379       Br386   1.921       .  S
C380        C381   1.409       .  A
C380        H385   1.083       .  S
C381        C798   1.415       .  A
C382        C797   1.413       .  A
C382       Br383   1.922       .  S
C387        C388   1.407       .  A
C387        C392   1.405       .  A
C387        H394   1.084       .  S
C388        C389   1.410       .  A
C389        C390   1.405       .  A
C389       Br396   1.918       .  S
C390        C391   1.406       .  A
C390        H395   1.084       .  S
C391        C392   1.408       .  A
C392       Br393   1.918       .  S
C397        C398   1.401       .  A
C397        C402   1.398       .  A
C397        H404   1.083       .  S
C398        C399   1.403       .  A
C399        C400   1.399       .  A
C399       Br406   1.918       .  S
C400        C401   1.409       .  A
C400        H405   1.082       .  S
C401        C402   1.414       .  A
C402       Br403   1.922       .  S
C407        C408   1.408       .  A
C407        C412   1.398       .  A
C407        H414   1.083       .  S
C408        C409   1.417       .  A
C409        C410   1.397       .  A
C409       Br416   1.923       .  S
C410        C411   1.399       .  A
C410        H415   1.085       .  S
C411        C412   1.406       .  A
C412       Br413   1.920       .  S
O417        C432   1.266       .  A
C418        O428   1.271       .  A
C418        O419   1.272       .  A
C418        C824   1.484       .  S
O419       Al421   1.899       .  S
O420        C422   1.257       .  A
O420       Al421   1.897       .  S
Al421       O429   1.923       .  S
Al421       O430   1.783       .  S
C422        O435   1.275       .  A
C422        C774   1.497       .  S
O423        C433   1.268       .  A
O423       Al425   1.945       .  S
O424        C437   1.262       .  A
O424       Al434   1.902       .  S
Al425       O438   1.907       .  S
Al425       O435   1.956       .  S
Al425       O430   1.781       .  S
O426        C433   1.257       .  A
O426       Al434   1.886       .  S
O427        C436   1.254       .  A
O427       Al434   1.900       .  S
O428       Al434   1.924       .  S
O429        C436   1.253       .  A
O430       Al434   1.769       .  S
O431        C432   1.273       .  A
C432        C814   1.467   1_554  S
C433        C804   1.484       .  S
C436        C784   1.476       .  S
C437        O438   1.261       .  A
C437        C794   1.489       .  S
O439        C454   1.266       .  A
O439       Al447   1.920       .  S
C440        O450   1.269       .  A
C440        O441   1.272       .  A
C440        C757   1.494       .  S
O441       Al443   1.908       .  S
O442        C444   1.257       .  A
O442       Al443   1.896       .  S
Al443       O451   1.913       .  S
Al443       O453   1.925       .  S
Al443       O452   1.778       .  S
C444        O457   1.276       .  A
C444        C724   1.495       .  S
O445        C455   1.267       .  A
O445       Al447   1.945       .  S
O446        C459   1.264       .  A
O446       Al456   1.904       .  S
Al447       O460   1.913       .  S
Al447       O457   1.952       .  S
Al447       O452   1.781       .  S
O448        C455   1.256       .  A
O448       Al456   1.882       .  S
O449        C458   1.255       .  A
O449       Al456   1.900       .  S
O450       Al456   1.925       .  S
O451        C458   1.254       .  A
O452       Al456   1.766       .  S
O453        C454   1.273       .  A
C454        C744   1.471       .  S
C455        C807   1.482       .  S
C458        C734   1.482       .  S
C459        O460   1.263       .  A
C459        C767   1.488       .  S
O461        C476   1.266       .  A
O461       Al469   1.920       .  S
C462        O472   1.270       .  A
C462        O463   1.267       .  A
C462        C717   1.479       .  S
O463       Al465   1.912       .  S
O464        C466   1.259       .  A
O464       Al465   1.895       .  S
Al465       O473   1.907       .  S
Al465       O475   1.894       .  S
Al465       O474   1.768       .  S
C466        O479   1.268       .  A
C466        C694   1.486       .  S
O467        C477   1.279       .  A
O467       Al469   1.975       .  S
O468        C481   1.272       .  A
O468       Al478   1.924       .  S
Al469       O482   1.919       .  S
Al469       O479   1.946       .  S
Al469       O474   1.780       .  S
O470        C477   1.255       .  A
O470       Al478   1.882       .  S
O471        C480   1.254       .  A
O471       Al478   1.912       .  S
O472       Al478   1.907       .  S
O473        C480   1.257       .  A
O474       Al478   1.774       .  S
O475        C476   1.258       .  A
C476        C737   1.488       .  S
C477        C674   1.506       .  S
C480        C684   1.476       .  S
C481        O482   1.265       .  A
C481        C704   1.469       .  S
O483        C498   1.267       .  A
C484        O494   1.273       .  A
C484        O485   1.268       .  A
C484        C747   1.491       .  S
O485       Al487   1.918       .  S
O486        C488   1.258       .  A
O486       Al487   1.887       .  S
Al487       O495   1.912       .  S
Al487       O497   1.887       .  S
Al487       O496   1.770       .  S
C488        O501   1.269       .  A
C488        C697   1.487       .  S
O489        C499   1.279       .  A
O489       Al491   1.980       .  S
O490        C503   1.274       .  A
Al491       O501   1.944       .  S
Al491       O496   1.781       .  S
O492        C499   1.251       .  A
O492       Al500   1.877       .  S
O493        C502   1.255       .  A
O493       Al500   1.913       .  S
O494       Al500   1.919       .  S
O495        C502   1.255       .  A
O496       Al500   1.775       .  S
C498        C667   1.492       .  S
C499        C654   1.510       .  S
C502        C797   1.490       .  S
C503        O504   1.265       .  A
C503        C754   1.475       .  S
O505        C520   1.268       .  A
C506        O516   1.272       .  A
C506        O507   1.272       .  A
C506        C707   1.484       .  S
O507       Al509   1.902       .  S
O508        C510   1.258       .  A
O508       Al509   1.889       .  S
Al509       O517   1.918       .  S
Al509       O518   1.777       .  S
C510        O523   1.278       .  A
C510        C777   1.511       .  S
O511        C521   1.266       .  A
O511       Al513   1.942       .  S
O512        C525   1.262       .  A
O512       Al522   1.896       .  S
Al513       O526   1.913       .  S
Al513       O523   1.975       .  S
Al513       O518   1.782       .  S
O514        C521   1.256       .  A
O514       Al522   1.879       .  S
O515        C524   1.252       .  A
O515       Al522   1.900       .  S
O516       Al522   1.927       .  S
O517        C524   1.252       .  A
O518       Al522   1.768       .  S
O519        C520   1.274       .  A
C520        C714   1.463   1_554  S
C521        C644   1.483       .  S
C524        C664   1.476       .  S
C525        O526   1.264       .  A
C525        C637   1.481       .  S
O527        C542   1.266       .  A
O527       Al535   1.916       .  S
C528        O538   1.269       .  A
C528        O529   1.265       .  A
C528        C627   1.482       .  S
O529       Al531   1.897       .  S
O530        C532   1.254       .  A
O530       Al531   1.889       .  S
Al531       O539   1.918       .  S
Al531       O541   1.903       .  S
Al531       O540   1.776       .  S
C532        O545   1.278       .  A
C532        C727   1.505       .  S
O533        C543   1.265       .  A
O533       Al535   1.934       .  S
O534        C547   1.258       .  A
O534       Al544   1.890       .  S
Al535       O548   1.927       .  S
Al535       O545   1.969       .  S
Al535       O540   1.773       .  S
O536        C543   1.261       .  A
O536       Al544   1.903       .  S
O537        C546   1.258       .  A
O537       Al544   1.913       .  S
O538       Al544   1.913       .  S
O539        C546   1.258       .  A
O540       Al544   1.766       .  S
O541        C542   1.270       .  A
C542        C614   1.455       .  S
C543        C647   1.482       .  S
C546        C607   1.488       .  S
C547        O548   1.269       .  A
C547        C687   1.492       .  S
O549        C564   1.268       .  A
C550        O560   1.269       .  A
C550        O551   1.265       .  A
C550        C617   1.475       .  S
O551       Al553   1.904       .  S
O552        C554   1.260       .  A
O552       Al553   1.894       .  S
Al553       O561   1.910       .  S
Al553       O563   1.873       .  S
Al553       O562   1.769       .  S
C554        O567   1.265       .  A
C554        C597   1.485       .  S
O555        C565   1.276       .  A
O555       Al557   1.962       .  S
O556        C569   1.275       .  A
Al557       O567   1.938       .  S
Al557       O562   1.783       .  S
O558        C565   1.256       .  A
O558       Al566   1.893       .  S
O559        C568   1.256       .  A
O559       Al566   1.915       .  S
O560       Al566   1.899       .  S
O561        C568   1.256       .  A
O562       Al566   1.780       .  S
C564        C787   1.492       .  S
C565        C657   1.497       .  S
C568        C634   1.495       .  S
C569        O570   1.268       .  A
C569        C624   1.475       .  S
O571        C586   1.264       .  A
O571       Al579   1.915       .  S
C572        O582   1.270       .  A
C572        O573   1.270       .  A
C572        C817   1.485       .  S
O573       Al575   1.921       .  S
O574        C576   1.258       .  A
O574       Al575   1.896       .  S
Al575       O583   1.906       .  S
Al575       O585   1.901       .  S
Al575       O584   1.771       .  S
C576        O589   1.264       .  A
C576        C594   1.486       .  S
O577        C587   1.276       .  A
O577       Al579   1.950       .  S
O578        C591   1.272       .  A
O578       Al588   1.925       .  S
Al579       O592   1.907       .  S
Al579       O589   1.935       .  S
Al579       O584   1.783       .  S
O580        C587   1.259       .  A
O580       Al588   1.904       .  S
O581        C590   1.255       .  A
O581       Al588   1.917       .  S
O582       Al588   1.901       .  S
O583        C590   1.254       .  A
O584       Al588   1.782       .  S
O585        C586   1.264       .  A
C586        C604   1.494       .  S
C587        C677   1.493       .  S
C590        C764   1.496       .  S
C591        O592   1.263       .  A
C591        C827   1.466       .  S
C593        C594   1.402       .  A
C593        C598   1.406       .  A
C593        H600   1.083       .  S
C594        C595   1.414       .  A
C595        C596   1.402       .  A
C595       Br602   1.912       .  S
C596        C597   1.400       .  A
C596        H601   1.083       .  S
C597        C598   1.415       .  A
C598       Br599   1.915       .  S
C603        C604   1.407       .  A
C603        C608   1.397       .  A
C603        H610   1.082       .  S
C604        C605   1.416       .  A
C605        C606   1.404       .  A
C605       Br612   1.921       .  S
C606        C607   1.408       .  A
C606        H611   1.083       .  S
C607        C608   1.411       .  A
C608       Br609   1.920       .  S
C613        C614   1.397       .  A
C613        C618   1.393       .  A
C613        H620   1.084       .  S
C614        C615   1.403       .  A
C615        C616   1.396       .  A
C615       Br622   1.919       .  S
C616        C617   1.407       .  A
C616        H621   1.083       .  S
C617        C618   1.416       .  A
C618       Br619   1.924       .  S
C623        C624   1.407       .  A
C623        C628   1.399       .  A
C623        H630   1.084       .  S
C624        C625   1.405       .  A
C625        C626   1.390       .  A
C625       Br632   1.906       .  S
C626        C627   1.406       .  A
C626        H631   1.083       .  S
C627        C628   1.414       .  A
C628       Br629   1.922       .  S
C633        C634   1.412       .  A
C633        H640   1.083       .  S
C634        C635   1.417       .  A
C635       Br642   1.921       .  S
C636        C637   1.407       .  A
C636        H641   1.084       .  S
C637        C638   1.406       .  A
C638       Br639   1.919       .  S
C643        C644   1.410       .  A
C643        C648   1.408       .  A
C643        H650   1.084       .  S
C644        C645   1.408       .  A
C645        C646   1.401       .  A
C645       Br652   1.919       .  S
C646        C647   1.406       .  A
C646        H651   1.084       .  S
C647        C648   1.406       .  A
C648       Br649   1.916       .  S
C653        C654   1.403       .  A
C653        C658   1.412   1_655  A
C653        H660   1.083       .  S
C654        C655   1.433       .  A
C655        C656   1.404       .  A
C655       Br662   1.927       .  S
C656        C657   1.395   1_655  A
C656        H661   1.084   1_655  S
C657        C658   1.422       .  A
C658       Br659   1.918       .  S
C663        C664   1.397       .  A
C663        C668   1.395       .  A
C663        H670   1.084       .  S
C665        C666   1.404       .  A
C665       Br672   1.918       .  S
C666        H671   1.083       .  S
C667        C668   1.423       .  A
C668       Br669   1.926       .  S
C673        C674   1.405       .  A
C673        C678   1.413   1_545  A
C673        H680   1.083       .  S
C674        C675   1.430       .  A
C675        C676   1.401   1_545  A
C675       Br682   1.926       .  S
C676        C677   1.394       .  A
C676        H681   1.084       .  S
C677        C678   1.420       .  A
C678       Br679   1.917       .  S
C683        C684   1.397       .  A
C683        C688   1.395       .  A
C683        H690   1.083       .  S
C684        C685   1.410       .  A
C685        C686   1.403       .  A
C685       Br692   1.919       .  S
C686        C687   1.408       .  A
C686        H691   1.082       .  S
C687        C688   1.424       .  A
C688       Br689   1.927       .  S
C693        C694   1.407       .  A
C693        C698   1.404       .  A
C693        H700   1.084       .  S
C694        C695   1.408       .  A
C695        C696   1.407       .  A
C695       Br702   1.917       .  S
C696        C697   1.409       .  A
C696        H701   1.084       .  S
C697        C698   1.409       .  A
C698       Br699   1.917       .  S
C703        C704   1.401       .  A
C703        C708   1.399       .  A
C703        H710   1.085       .  S
C704        C705   1.406       .  A
C705        C706   1.400       .  A
C705       Br712   1.917       .  S
C706        C707   1.408       .  A
C706        H711   1.085       .  S
C707        C708   1.415       .  A
C708       Br709   1.921       .  S
C713        C714   1.400       .  A
C713        C718   1.396       .  A
C713        H720   1.084       .  S
C714        C715   1.405       .  A
C715        C716   1.399       .  A
C715       Br722   1.918       .  S
C716        C717   1.407       .  A
C716        H721   1.083       .  S
C717        C718   1.415       .  A
C718       Br719   1.923       .  S
C723        C724   1.395       .  A
C723        C728   1.401   1_655  A
C723        H730   1.084       .  S
C724        C725   1.423       .  A
C725        C726   1.408   1_655  A
C725       Br732   1.921       .  S
C726        C727   1.403       .  A
C726        H731   1.083       .  S
C727        C728   1.432       .  A
C728       Br729   1.926       .  S
C733        C734   1.400       .  A
C733        C738   1.395       .  A
C733        H740   1.085       .  S
C734        C735   1.414       .  A
C735        C736   1.402       .  A
C735       Br742   1.920       .  S
C736        C737   1.406       .  A
C736        H741   1.084       .  S
C737        C738   1.420       .  A
C738       Br739   1.925       .  S
C743        C744   1.399       .  A
C743        C748   1.398       .  A
C743        H750   1.084       .  S
C744        C745   1.407       .  A
C745        C746   1.403       .  A
C745       Br752   1.919       .  S
C746        C747   1.410       .  A
C746        H751   1.083       .  S
C747        C748   1.420       .  A
C748       Br749   1.923       .  S
C753        C754   1.400       .  A
C753        C758   1.401       .  A
C753        H760   1.084       .  S
C754        C755   1.409       .  A
C755        C756   1.400       .  A
C755       Br762   1.921       .  S
C756        C757   1.408       .  A
C756        H761   1.083       .  S
C757        C758   1.422       .  A
C758       Br759   1.923       .  S
C763        C764   1.411       .  A
C763        C768   1.405       .  A
C763        H770   1.083       .  S
C764        C765   1.415       .  A
C765        C766   1.397       .  A
C765       Br772   1.917       .  S
C766        C767   1.404       .  A
C766        H771   1.084       .  S
C767        C768   1.412       .  A
C768       Br769   1.919       .  S
C773        C774   1.416       .  A
C773        C778   1.414   1_565  A
C773        H780   1.083       .  S
C774        C775   1.405       .  A
C775        C776   1.403   1_565  A
C775       Br782   1.920       .  S
C776        C777   1.419       .  A
C776        H781   1.082       .  S
C777        C778   1.411       .  A
C778       Br779   1.917       .  S
C783        C784   1.395       .  A
C783        C788   1.392       .  A
C783        H790   1.083       .  S
C784        C785   1.410       .  A
C785        C786   1.407       .  A
C785       Br792   1.918       .  S
C786        C787   1.409       .  A
C787        C788   1.423       .  A
C788       Br789   1.927       .  S
C793        C794   1.406       .  A
C793        C798   1.399       .  A
C793        H800   1.083       .  S
C795        C796   1.402       .  A
C795       Br802   1.921       .  S
C796        C797   1.409       .  A
C796        H801   1.083       .  S
C798       Br799   1.922       .  S
C803        C804   1.407       .  A
C803        C808   1.405       .  A
C803        H810   1.084       .  S
C804        C805   1.409       .  A
C805        C806   1.406       .  A
C805       Br812   1.918       .  S
C806        C807   1.407       .  A
C806        H811   1.084       .  S
C807        C808   1.408       .  A
C808       Br809   1.918       .  S
C813        C814   1.401       .  A
C813        C818   1.398       .  A
C813        H820   1.084       .  S
C814        C815   1.405       .  A
C815        C816   1.399       .  A
C815       Br822   1.919       .  S
C816        C817   1.409       .  A
C816        H821   1.082       .  S
C817        C818   1.416       .  A
C818       Br819   1.922       .  S
C823        C824   1.408       .  A
C823        C828   1.398       .  A
C823        H830   1.083       .  S
C824        C825   1.417       .  A
C825        C826   1.399       .  A
C825       Br832   1.923       .  S
C826        C827   1.401       .  A
C826        H831   1.084       .  S
C827        C828   1.405       .  A
C828       Br829   1.920       .  S
