geometry optimzed in LAMMPS
_audit_creation_date              2020-12-01 
_audit_creation_method            'lammps2cif' 
_symmetry_space_group_name_H-M    'P1' 
_symmetry_Int_Tables_number       1 
_symmetry_cell_setting            triclinic 
loop_ 
_symmetry_equiv_pos_as_xyz 
  x,y,z 
_cell_length_a                    33.16651645 
_cell_length_b                    33.05363026315431 
_cell_length_c                    97.05157802294907 
_cell_angle_alpha                 89.99718023782864 
_cell_angle_beta                  89.90016973119954 
_cell_angle_gamma                 120.0884168385467 
loop_ 
_atom_site_label 
_atom_site_type_symbol 
_atom_site_fract_x 
_atom_site_fract_y 
_atom_site_fract_z 
_atom_site_charge 
Zr1        Zr  0.04277969  0.36301627  0.98205352     2.17500
O2          O  0.99183832  0.39590975  0.97912726    -0.51200
O3          O  0.99742646  0.30569475  0.99980990    -0.74400
O4          O  0.97413464  0.31330560  0.96844984    -0.81200
O5          O  0.11202241  0.46079720  0.00738772    -0.83000
O6          O  0.00103090  0.29209383  0.94987731    -0.78600
O7          O  0.03898778  0.41187167  0.99915944    -0.90200
O8          O  0.03685419  0.26906449  0.00540518    -0.76200
O9          O  0.05139249  0.29907235  0.97518030    -0.85700
O10         O  0.09679442  0.36276565  0.99823456    -0.85400
O11         O  0.07206331  0.38248847  0.95895749    -0.72100
O12         O  0.11268030  0.43816052  0.98057069    -0.84300
Zr13       Zr  0.20423919  0.38785447  0.96598985     2.26400
Zr14       Zr  0.08261705  0.31864442  0.95237974     2.06300
Zr15       Zr  0.16710545  0.43706822  0.99664782     2.10000
Zr16       Zr  0.10569438  0.29879854  0.99105857     1.78800
O17         O  0.21225479  0.52194049  0.99841291    -0.93100
O18         O  0.06061290  0.21693059  0.98426676    -0.40900
O19         O  0.17628079  0.37245899  0.98934001    -0.77500
O20         O  0.13535153  0.31317052  0.96789955    -0.96200
O21         O  0.15220317  0.39227862  0.95031165    -0.89500
O22         O  0.19632563  0.45240494  0.97361244    -0.92300
C23         C  0.00252877  0.27609076  0.00707291     1.01400
C24         C  0.06731427  0.44551951  0.00676120     1.14300
C25         C  0.96880267  0.29332625  0.95676177     1.05100
O26         O  0.05334309  0.23493752  0.95089287    -0.94500
O27         O  0.13477616  0.31576160  0.93553056    -0.90200
O28         O  0.20907823  0.35708093  0.94352994    -0.83400
C29         C  0.17876704  0.33235466  0.93433216     1.11800
O30         O  0.09158665  0.48439742  0.95093440    -0.96500
Zr31       Zr  0.14377271  0.45591789  0.95768126     1.88900
O32         O  0.25932430  0.45803618  0.95381158    -0.73100
O33         O  0.06130618  0.32014044  0.92841547    -0.52400
O34         O  0.13675091  0.45666768  0.93269758    -0.97100
O35         O  0.17171097  0.53548326  0.96574426    -0.54300
O36         O  0.22275536  0.49890006  0.94877011    -0.73600
C37         C  0.25837439  0.49341223  0.94880862     0.98700
O38         O  0.24729865  0.34579639  0.96679967    -0.62500
O39         O  0.17402419  0.42534585  0.02111018    -0.57300
O40         O  0.26752624  0.42246267  0.98171720    -0.93900
O41         O  0.25116981  0.45654670  0.99950034    -0.92400
O42         O  0.13028296  0.29713282  0.01457338    -0.92700
O43         O  0.15320331  0.26214784  0.99370462    -0.91500
C44         C  0.27929804  0.44680457  0.99270465     1.17500
H45         H  0.08509306  0.35869959  0.00755191     0.33500
H46         H  0.14132188  0.28872495  0.96497058     0.44300
H47         H  0.22576403  0.48125524  0.97391404     0.37900
H48         H  0.04933996  0.38396844  0.95307121     0.34400
H49         H  0.05927419  0.19911040  0.99261492     0.26100
H50         H  0.03524656  0.28831420  0.92641812     0.32100
H51         H  0.15969972  0.48896789  0.92984171     0.38000
H52         H  0.15087325  0.33042214  0.01700213     0.32400
H53         H  0.19305276  0.45730797  0.02487575     0.31300
H54         H  0.22682786  0.52798444  0.00764020     0.33000
H55         H  0.20472013  0.54748801  0.96825125     0.32000
H56         H  0.18573665  0.28846245  0.99342767     0.36000
H57         H  0.25230263  0.34240377  0.97668865     0.28700
H58         H  0.96044573  0.37135887  0.98217226     0.32900
H59         H  0.11086378  0.51296059  0.94541516     0.35800
H60         H  0.14248393  0.41410010  0.02494956     0.28400
H61         H  0.22452467  0.31355436  0.96392016     0.41300
H62         H  0.02158050  0.22026833  0.95487298     0.31300
H63         H  0.02833285  0.21069702  0.98310830     0.38900
H64         H  0.15572054  0.53173249  0.97467252     0.30800
H65         H  0.04732646  0.34049543  0.92824568     0.30900
H66         H  0.98916738  0.39862701  0.96905272     0.31100
Zr67       Zr  0.66995903  0.98730038  0.87134575     2.17500
O68         O  0.67154532  0.06144029  0.86811316    -0.51200
O69         O  0.71915479  0.01980148  0.85090655    -0.74400
O70         O  0.72354855  0.05046489  0.88644942    -0.81200
O71         O  0.55535085  0.92587374  0.85142600    -0.83000
O72         O  0.75899206  0.02298650  0.90047878    -0.78600
O73         O  0.60720622  0.99429708  0.86168822    -0.90200
O74         O  0.73905408  0.96802093  0.84254492    -0.76200
O75         O  0.72826210  0.96675466  0.87476354    -0.85700
O76         O  0.65200399  0.92662127  0.85497226    -0.85400
O77         O  0.65953318  0.96142318  0.89494153    -0.72100
O78         O  0.59166608  0.92584414  0.87610597    -0.84300
Zr79       Zr  0.62594686  0.81868219  0.88750037     2.26400
Zr80       Zr  0.71759956  0.93919781  0.89808295     2.06300
Zr81       Zr  0.57448784  0.86476677  0.85982670     2.10000
Zr82       Zr  0.70986280  0.90500756  0.85887116     1.78800
O83         O  0.49025601  0.82629157  0.86264526    -0.93100
O84         O  0.79429588  0.94617579  0.86129153    -0.40900
O85         O  0.63299250  0.84358502  0.86396257    -0.77500
O86         O  0.70365015  0.87828444  0.88223075    -0.96200
O87         O  0.64056133  0.87847055  0.90339346    -0.89500
O88         O  0.56646668  0.83797433  0.88310666    -0.92300
C89         C  0.73803076  0.00607773  0.84188126     1.01400
C90         C  0.57201243  0.97020864  0.85394794     1.14300
C91         C  0.75289304  0.05574636  0.89584921     1.05100
O92         O  0.79715647  0.95512470  0.89510920    -0.94500
O93         O  0.72336501  0.88551930  0.91386706    -0.90200
O94         O  0.66171655  0.81369909  0.90907586    -0.83400
C95         C  0.69698543  0.84189845  0.91645649     1.11800
O96         O  0.57176860  0.96381677  0.90538606    -0.96500
Zr97       Zr  0.58184797  0.89788829  0.89928848     1.88900
O98         O  0.55965719  0.77326841  0.90212633    -0.73100
O99         O  0.72753596  0.96261550  0.92223946    -0.52400
O100        O  0.58923108  0.91384895  0.92394033    -0.97100
O101        O  0.50207392  0.87786668  0.89423387    -0.54300
O102        O  0.53619991  0.82195622  0.91073740    -0.73600
C103        C  0.53314874  0.78166167  0.90974349     0.98700
O104        O  0.65260066  0.76222965  0.88522974    -0.62500
O105        O  0.56767145  0.85689369  0.83487235    -0.57300
O106        O  0.57901725  0.75517186  0.87241893    -0.93900
O107        O  0.54977453  0.78015424  0.85526493    -0.92400
O108        O  0.69166430  0.86968083  0.83604077    -0.92700
O109        O  0.73493962  0.84835672  0.85452183    -0.91500
C110        C  0.55526596  0.74815656  0.86141324     1.17500
H111        H  0.65213880  0.93673070  0.84564749     0.33500
H112        H  0.72517229  0.86710663  0.88383155     0.44300
H113        H  0.53543832  0.81146417  0.88413557     0.37900
H114        H  0.66484156  0.98628480  0.90122660     0.34400
H115        H  0.80075692  0.92628409  0.86747557     0.26100
H116        H  0.76144980  0.98371146  0.92349821     0.32100
H117        H  0.55773706  0.89307467  0.92777102     0.38000
H118        H  0.66092832  0.84097181  0.83709114     0.32400
H119        H  0.59207956  0.84964655  0.83209504     0.31300
H120        H  0.47907374  0.83398221  0.85413293     0.33000
H121        H  0.50478332  0.90014027  0.88697074     0.32000
H122        H  0.70640789  0.81749096  0.85567270     0.36000
H123        H  0.65905958  0.76184501  0.87528172     0.28700
H124        H  0.70437231  0.08535365  0.86618616     0.32900
H125        H  0.58366435  0.98490120  0.89729764     0.35800
H126        H  0.53797172  0.82745741  0.83328818     0.28400
H127        H  0.68387394  0.77725216  0.88951166     0.41300
H128        H  0.81425061  0.98706131  0.89119525     0.31300
H129        H  0.80605623  0.94338681  0.85216200     0.38900
H130        H  0.49144063  0.88742860  0.90251084     0.30800
H131        H  0.71368391  0.98295664  0.92318184     0.30900
H132        H  0.66420704  0.06999796  0.87716151     0.31100
Zr133      Zr  0.66062493  0.64600340  0.31324293     2.17500
O134        O  0.65071132  0.56769664  0.31455612    -0.51200
O135        O  0.71369210  0.65845452  0.33226347    -0.74400
O136        O  0.70852557  0.63255297  0.29670124    -0.81200
O137        O  0.54818288  0.60061154  0.33451237    -0.83000
O138        O  0.74390732  0.69622647  0.28275978    -0.78600
O139        O  0.59676465  0.57991279  0.32411666    -0.90200
O140        O  0.74274254  0.73227882  0.34026721    -0.76200
O141        O  0.72183080  0.72297007  0.30856607    -0.85700
O142        O  0.65302581  0.69325694  0.33058835    -0.85400
O143        O  0.64412039  0.66120904  0.29033718    -0.72100
O144        O  0.58439243  0.63683294  0.31083335    -0.84300
Zr145      Zr  0.62389393  0.77931823  0.29967496     2.26400
Zr146      Zr  0.70495192  0.73996180  0.28604262     2.06300
Zr147      Zr  0.57718596  0.68456659  0.32812835     2.10000
Zr148      Zr  0.71383351  0.77084785  0.32535766     1.78800
O149        O  0.49265568  0.64639302  0.32979359    -0.93100
O150        O  0.79663540  0.81185774  0.31968524    -0.40900
O151        O  0.63828473  0.76225922  0.32262527    -0.77500
O152        O  0.70078911  0.79106674  0.30261178    -0.96200
O153        O  0.62935315  0.73023239  0.28308153    -0.89500
O154        O  0.56266515  0.70241675  0.30551758    -0.92300
C155        C  0.73762382  0.69121564  0.34092053     1.01400
C156        C  0.56091555  0.57040734  0.33136016     1.14300
C157        C  0.73678609  0.65664527  0.28701055     1.05100
O158        O  0.78689034  0.80016474  0.28524088    -0.94500
O159        O  0.71113501  0.80034813  0.27081706    -0.90200
O160        O  0.65305488  0.81447040  0.27690488    -0.83400
C161        C  0.68578180  0.81885457  0.26877700     1.11800
O162        O  0.54821334  0.57841398  0.27851560    -0.96500
Zr163      Zr  0.56837394  0.65415156  0.28831762     1.88900
O164        O  0.55270758  0.76120584  0.28771296    -0.73100
O165        O  0.70103952  0.71758551  0.26192016    -0.52400
O166        O  0.57530660  0.65884555  0.26330256    -0.97100
O167        O  0.49154838  0.59078130  0.29484995    -0.54300
O168        O  0.51916529  0.68544890  0.28077763    -0.73600
C169        C  0.52009356  0.72471103  0.28181598     0.98700
O170        O  0.65836029  0.86403665  0.30108444    -0.62500
O171        O  0.58589070  0.69054915  0.35310001    -0.57300
O172        O  0.58622079  0.80226063  0.31650505    -0.93900
O173        O  0.55917218  0.74807884  0.33383063    -0.92400
O174        O  0.70554115  0.79348251  0.34860526    -0.92700
O175        O  0.74999966  0.85427595  0.33004113    -0.91500
C176        C  0.56618855  0.78676157  0.32814841     1.17500
H177        H  0.65506716  0.68340697  0.33979390     0.33500
H178        H  0.72378757  0.82307034  0.30047769     0.44300
H179        H  0.53235620  0.69976371  0.30591112     0.37900
H180        H  0.64576380  0.64006153  0.28379968     0.34400
H181        H  0.81259223  0.82563456  0.32850564     0.26100
H182        H  0.73374798  0.72946244  0.25905357     0.32100
H183        H  0.54310004  0.64645537  0.25989786     0.38000
H184        H  0.67217486  0.78394839  0.34942112     0.32400
H185        H  0.55614224  0.68693017  0.35654515     0.31300
H186        H  0.48643271  0.64987115  0.33957552     0.33000
H187        H  0.47023000  0.59102611  0.28777126     0.32000
H188        H  0.73917440  0.86676599  0.32253405     0.36000
H189        H  0.66942877  0.87197687  0.31070512     0.28700
H190        H  0.68208728  0.57221484  0.31633710     0.32900
H191        H  0.52209029  0.57038079  0.27209516     0.35800
H192        H  0.58519763  0.66149065  0.35599720     0.28400
H193        H  0.68743169  0.87724390  0.29559505     0.41300
H194        H  0.79783587  0.79626092  0.27610440     0.31300
H195        H  0.80417770  0.78699399  0.31773123     0.38900
H196        H  0.48375336  0.60185935  0.30337498     0.30800
H197        H  0.68663843  0.68312247  0.26193650     0.30900
H198        H  0.64251330  0.55449076  0.30513437     0.31100
Zr199      Zr  0.04605705  0.66768329  0.20016783     2.17500
O200        O  0.97399833  0.59487396  0.19515845    -0.51200
O201        O  0.01582525  0.68857533  0.18031047    -0.74400
O202        O  0.97977613  0.65434831  0.21442463    -0.81200
O203        O  0.11483563  0.61369951  0.18408745    -0.83000
O204        O  0.00425768  0.71807780  0.22800109    -0.78600
O205        O  0.04253433  0.59912916  0.19024658    -0.90200
O206        O  0.06587405  0.76218374  0.17298032    -0.76200
O207        O  0.06574867  0.74656818  0.20379165    -0.85700
O208        O  0.10908994  0.71246459  0.18462543    -0.85400
O209        O  0.06685029  0.68061795  0.22418557    -0.72100
O210        O  0.10722002  0.65187211  0.20592224    -0.84300
Zr211      Zr  0.21088726  0.79191843  0.21897760     2.26400
Zr212      Zr  0.08814195  0.76101836  0.22750405     2.06300
Zr213      Zr  0.17084673  0.69757317  0.19050567     2.10000
Zr214      Zr  0.13036807  0.79192132  0.18891551     1.78800
O215        O  0.21361102  0.65551580  0.19120420    -0.93100
O216        O  0.10302341  0.84786213  0.18957741    -0.40900
O217        O  0.19129543  0.77701880  0.19501592    -0.77500
O218        O  0.15185850  0.81005630  0.21277480    -0.96200
O219        O  0.14790336  0.74466395  0.23366701    -0.89500
O220        O  0.19274654  0.71361891  0.21412906    -0.92300
C221        C  0.02829490  0.72269763  0.17188487     1.01400
C222        C  0.07000884  0.58617828  0.18526347     1.14300
C223        C  0.97266792  0.67873582  0.22332792     1.05100
O224        O  0.07856206  0.82847495  0.22356834    -0.94500
O225        O  0.13829433  0.80796745  0.24619297    -0.90200
O226        O  0.21289643  0.82798547  0.24103505    -0.83400
C227        C  0.18182693  0.82751591  0.24906544     1.11800
O228        O  0.06654255  0.59475927  0.23877336    -0.96500
Zr229      Zr  0.13025163  0.66723839  0.22948743     1.88900
O230        O  0.25411905  0.76963793  0.23421077    -0.73100
O231        O  0.05453289  0.75393911  0.25039724    -0.52400
O232        O  0.11983970  0.66968943  0.25425457    -0.97100
O233        O  0.14102866  0.60101967  0.22448383    -0.54300
O234        O  0.20594225  0.69343413  0.24004607    -0.73600
C235        C  0.24536751  0.73162916  0.24027514     0.98700
O236        O  0.26519619  0.87598190  0.21804922    -0.62500
O237        O  0.17718354  0.70312577  0.16548539    -0.57300
O238        O  0.27749173  0.81048097  0.20519173    -0.93900
O239        O  0.25671303  0.75676778  0.18799547    -0.92400
O240        O  0.16522876  0.80067126  0.16620506    -0.92700
O241        O  0.19235435  0.87242655  0.18543794    -0.91500
C242        C  0.28716570  0.79410753  0.19457125     1.17500
H243        H  0.10000370  0.70361262  0.17516029     0.33500
H244        H  0.16240918  0.84262886  0.21458036     0.44300
H245        H  0.21913270  0.70907772  0.21517490     0.37900
H246        H  0.04110128  0.66037750  0.23010691     0.34400
H247        H  0.10242926  0.85622666  0.17981595     0.26100
H248        H  0.03349008  0.76701483  0.24968585     0.32100
H249        H  0.13711093  0.65555397  0.25843975     0.38000
H250        H  0.15062239  0.81443702  0.16040573     0.32400
H251        H  0.20795869  0.70645406  0.16343012     0.31300
H252        H  0.22124500  0.65351467  0.18145195     0.33000
H253        H  0.16364121  0.60281203  0.23144916     0.32000
H254        H  0.22151335  0.87118376  0.18603318     0.36000
H255        H  0.27093415  0.88367753  0.20812043     0.28700
H256        H  0.95041778  0.60377278  0.19286418     0.32900
H257        H  0.08127253  0.58156908  0.24475989     0.35800
H258        H  0.15439901  0.67146565  0.16214018     0.28400
H259        H  0.24658964  0.89035218  0.22094603     0.41300
H260        H  0.04806097  0.81552895  0.21889012     0.31300
H261        H  0.06980509  0.82917607  0.19227366     0.38900
H262        H  0.15850912  0.60926342  0.21568198     0.30800
H263        H  0.03388708  0.72004624  0.25207471     0.27300
H264        H  0.96340502  0.57753674  0.20398989     0.31100
Zr265      Zr  0.69834333  0.01239911  0.14947963     2.17500
O266        O  0.62665931  0.93859114  0.15404834    -0.51200
O267        O  0.71782637  0.98001065  0.16946204    -0.74400
O268        O  0.68382172  0.94825890  0.13387870    -0.81200
O269        O  0.65122409  0.07634479  0.17131345    -0.83000
O270        O  0.73663228  0.97962908  0.11656900    -0.78600
O271        O  0.63168100  0.00780608  0.16051548    -0.90200
O272        O  0.79075003  0.03220840  0.17676162    -0.76200
O273        O  0.77582266  0.03251749  0.14372727    -0.85700
O274        O  0.74539228  0.07317210  0.16540606    -0.85400
O275        O  0.70700820  0.03905857  0.12590978    -0.72100
O276        O  0.68191575  0.07497947  0.14644145    -0.84300
Zr277      Zr  0.81812863  0.18332568  0.13221752     2.26400
Zr278      Zr  0.78672562  0.06214374  0.12066685     2.06300
Zr279      Zr  0.73014711  0.13607683  0.16221160     2.10000
Zr280      Zr  0.82315538  0.09369055  0.15932769     1.78800
O281        O  0.68617800  0.17699472  0.16235918    -0.93100
O282        O  0.86441819  0.05064480  0.15614486    -0.40900
O283        O  0.80778184  0.15639696  0.15571766    -0.77500
O284        O  0.83753152  0.12303712  0.13588475    -0.96200
O285        O  0.76871934  0.12270126  0.11699129    -0.89500
O286        O  0.74084528  0.16332125  0.13902429    -0.92300
C287        C  0.75152472  0.99421538  0.17810849     1.01400
C288        C  0.62256898  0.03242465  0.16869764     1.14300
C289        C  0.70222625  0.94529646  0.12257930     1.05100
O290        O  0.85255849  0.05107098  0.12550488    -0.94500
O291        O  0.82793179  0.11731638  0.10213838    -0.90200
O292        O  0.85233532  0.19138011  0.10929175    -0.83400
C293        C  0.84870521  0.16166640  0.10011653     1.11800
O294        O  0.61484049  0.03836185  0.11757102    -0.96500
Zr295      Zr  0.69206850  0.10297528  0.12331954     1.88900
O296        O  0.79221738  0.22903187  0.11927964    -0.73100
O297        O  0.79577597  0.03579889  0.09792487    -0.52400
O298        O  0.68564714  0.09203250  0.09843044    -0.97100
O299        O  0.62719160  0.11357349  0.13012409    -0.54300
O300        O  0.71602784  0.18041785  0.11383533    -0.73600
C301        C  0.75353443  0.22060183  0.11383894     0.98700
O302        O  0.90088998  0.24135706  0.13286877    -0.62500
O303        O  0.73693813  0.14311434  0.18717133    -0.57300
O304        O  0.84173576  0.24707118  0.14802866    -0.93900
O305        O  0.79416219  0.21883234  0.16684954    -0.92400
O306        O  0.85064329  0.13218119  0.18148187    -0.92700
O307        O  0.90687896  0.14727774  0.16042423    -0.91500
C308        C  0.82980584  0.25155983  0.16021733     1.17500
H309        H  0.73747476  0.06351538  0.17486444     0.33500
H310        H  0.86963229  0.13448981  0.13332860     0.44300
H311        H  0.73581560  0.18964575  0.13894945     0.37900
H312        H  0.68544655  0.01463348  0.11985725     0.34400
H313        H  0.88023611  0.05373363  0.16505068     0.26100
H314        H  0.80265624  0.01025190  0.09948709     0.32100
H315        H  0.67363568  0.11227817  0.09507712     0.38000
H316        H  0.82229812  0.12797947  0.18618349     0.32400
H317        H  0.77085145  0.16110180  0.18897120     0.31300
H318        H  0.70844238  0.20892907  0.16563835     0.33000
H319        H  0.63400619  0.14376070  0.12602891     0.32000
H320        H  0.91207250  0.17491069  0.15502698     0.36000
H321        H  0.91694157  0.22483318  0.12950383     0.28700
H322        H  0.63608488  0.91497193  0.15574697     0.32900
H323        H  0.60292974  0.05015178  0.11015960     0.35800
H324        H  0.72571349  0.16492772  0.18954867     0.28400
H325        H  0.90556785  0.26408099  0.12550812     0.41300
H326        H  0.84029036  0.01722212  0.12406118     0.31300
H327        H  0.83977990  0.01730725  0.15576597     0.38900
H328        H  0.63126775  0.11960780  0.14015876     0.30800
H329        H  0.76455487  0.02066027  0.09360347     0.30900
H330        H  0.60882854  0.92907239  0.14530962     0.31100
Zr331      Zr  0.69438397  0.64323832  0.03353344     2.17500
O332        O  0.62238630  0.64423480  0.02901300    -0.51200
O333        O  0.71586943  0.69196602  0.01287433    -0.74400
O334        O  0.68232015  0.69781346  0.04759807    -0.81200
O335        O  0.64188946  0.52356295  0.01554678    -0.83000
O336        O  0.74434272  0.73542030  0.06183062    -0.78600
O337        O  0.62685668  0.57922493  0.02364015    -0.90200
O338        O  0.78851914  0.71011103  0.00596604    -0.76200
O339        O  0.77249730  0.70059443  0.03835461    -0.85700
O340        O  0.73973737  0.62383638  0.01855005    -0.85400
O341        O  0.70206503  0.63189857  0.05760903    -0.72100
O342        O  0.67603241  0.56472637  0.03881352    -0.84300
Zr343      Zr  0.81039055  0.59523101  0.05374256     2.26400
Zr344      Zr  0.78168020  0.68890561  0.06222427     2.06300
Zr345      Zr  0.72223083  0.54577253  0.02400797     2.10000
Zr346      Zr  0.81839696  0.68102107  0.02388424     1.78800
O347        O  0.67570249  0.46078657  0.02365349    -0.93100
O348        O  0.86565850  0.76600948  0.02454648    -0.40900
O349        O  0.80101332  0.60342768  0.02954340    -0.77500
O350        O  0.83102255  0.67362798  0.04793987    -0.96200
O351        O  0.76264241  0.61128453  0.06808566    -0.89500
O352        O  0.73270178  0.53665190  0.04787508    -0.92300
C353        C  0.75027304  0.71032823  0.00441098     1.01400
C354        C  0.61503180  0.54147490  0.01708831     1.14300
C355        C  0.70597908  0.72873204  0.05672922     1.05100
O356        O  0.84989870  0.76678985  0.06071392    -0.94500
O357        O  0.83158964  0.68795728  0.08018027    -0.90200
O358        O  0.84950848  0.63152275  0.07518699    -0.83400
C359        C  0.85131771  0.66401901  0.08286376     1.11800
O360        O  0.60948014  0.54346858  0.06835716    -0.96500
Zr361      Zr  0.68549331  0.55356988  0.06258779     1.88900
O362        O  0.78411926  0.52898171  0.06918300    -0.73100
O363        O  0.76075084  0.70137139  0.08531216    -0.52400
O364        O  0.68318999  0.56766278  0.08711073    -0.97100
O365        O  0.61828296  0.47720584  0.05768572    -0.54300
O366        O  0.70759637  0.50166355  0.07398343    -0.73600
C367        C  0.74525055  0.49966026  0.07483186     0.98700
O368        O  0.89366576  0.62213731  0.05302922    -0.62500
O369        O  0.73403941  0.54778522  0.99918482    -0.57300
O370        O  0.82760857  0.54451612  0.04095546    -0.93900
O371        O  0.77885770  0.51537003  0.02260454    -0.92400
O372        O  0.84441485  0.66060626  0.00286776    -0.92700
O373        O  0.90156266  0.70807785  0.02407292    -0.91500
C374        C  0.81354141  0.51972429  0.03006509     1.17500
H375        H  0.73207423  0.62414540  0.00898644     0.33500
H376        H  0.86324871  0.69487613  0.05028100     0.44300
H377        H  0.72715015  0.50525086  0.04900793     0.37900
H378        H  0.68140895  0.63781931  0.06317814     0.34400
H379        H  0.87874527  0.77510295  0.01513610     0.26100
H380        H  0.77418671  0.73558483  0.08625316     0.32100
H381        H  0.66342660  0.53622907  0.09117061     0.38000
H382        H  0.84863621  0.68479512  0.99608088     0.32400
H383        H  0.76620202  0.57388583  0.99771111     0.31300
H384        H  0.67097341  0.45259652  0.01374732     0.33000
H385        H  0.61667397  0.45710617  0.06547680     0.32000
H386        H  0.90345837  0.67943142  0.02553379     0.36000
H387        H  0.90106387  0.61981429  0.04327673     0.28700
H388        H  0.63161429  0.67692824  0.02661278     0.32900
H389        H  0.60109766  0.55604131  0.06028103     0.35800
H390        H  0.73575056  0.51931002  0.99719120     0.28400
H391        H  0.90894200  0.65622913  0.05460943     0.41300
H392        H  0.85487486  0.77895509  0.07025541     0.31300
H393        H  0.84303287  0.77715385  0.02527445     0.38900
H394        H  0.62801221  0.46552745  0.04968800     0.30800
H395        H  0.72657804  0.68830913  0.08513705     0.30900
H396        H  0.60560695  0.63791389  0.03789844     0.31100
Zr397      Zr  0.36100013  0.33475977  0.81449458     2.17500
O398        O  0.35971526  0.40753824  0.81764068    -0.51200
O399        O  0.30937900  0.31286926  0.83466142    -0.74400
O400        O  0.31175757  0.34873094  0.79867408    -0.81200
O401        O  0.47149810  0.38394385  0.83654158    -0.83000
O402        O  0.29790559  0.30244437  0.78000543    -0.78600
O403        O  0.42055153  0.40117067  0.82618951    -0.90200
O404        O  0.28416120  0.23727568  0.84049803    -0.76200
O405        O  0.30463533  0.25792653  0.80771040    -0.85700
O406        O  0.37253167  0.28567746  0.83021794    -0.85400
O407        O  0.38305308  0.32963883  0.79118638    -0.72100
O408        O  0.44051241  0.35268702  0.81215272    -0.84300
Zr409      Zr  0.41303956  0.21680680  0.79745541     2.26400
Zr410      Zr  0.32725081  0.25081274  0.78481082     2.06300
Zr411      Zr  0.45155758  0.30341184  0.82796549     2.10000
Zr412      Zr  0.31587375  0.20840785  0.82315158     1.78800
O413        O  0.53587267  0.34742725  0.83062895    -0.93100
O414        O  0.23289883  0.17109756  0.81795697    -0.40900
O415        O  0.39484499  0.22531617  0.82087534    -0.77500
O416        O  0.33367613  0.19756269  0.79991379    -0.96200
O417        O  0.40578250  0.26810933  0.78198398    -0.89500
O418        O  0.46962745  0.29377866  0.80482706    -0.92300
C419        C  0.28748407  0.27707650  0.84259567     1.01400
C420        C  0.45494984  0.41172371  0.83415413     1.14300
C421        C  0.29548190  0.33459863  0.78655814     1.05100
O422        O  0.24585688  0.19087941  0.78761947    -0.94500
O423        O  0.33058018  0.19821635  0.76822283    -0.90200
O424        O  0.37986872  0.17472808  0.77592833    -0.83400
C425        C  0.35091773  0.17416320  0.76702223     1.11800
O426        O  0.47820875  0.42342599  0.78345644    -0.96500
Zr427      Zr  0.46149004  0.34467308  0.78922740     1.88900
O428        O  0.48428183  0.24432408  0.78425949    -0.73100
O429        O  0.31031475  0.25344749  0.76045111    -0.52400
O430        O  0.45800058  0.35374822  0.76443185    -0.97100
O431        O  0.53730523  0.40520748  0.79760987    -0.54300
O432        O  0.51449427  0.32169168  0.77946905    -0.73600
C433        C  0.51561241  0.28346900  0.77919508     0.98700
O434        O  0.38875599  0.13370864  0.79883705    -0.62500
O435        O  0.43912824  0.29118601  0.85270660    -0.57300
O436        O  0.45655022  0.19761205  0.81304497    -0.93900
O437        O  0.47930451  0.24540429  0.83168923    -0.92400
O438        O  0.32023580  0.17263596  0.84459714    -0.92700
O439        O  0.28388694  0.12406008  0.82287483    -0.91500
C440        C  0.47702323  0.21063686  0.82466700     1.17500
H441        H  0.36947420  0.29186015  0.83974001     0.33500
H442        H  0.31303179  0.16581542  0.79697171     0.44300
H443        H  0.50080172  0.29857307  0.80486895     0.37900
H444        H  0.38150952  0.35241349  0.78533442     0.34400
H445        H  0.21724463  0.15007251  0.82588350     0.26100
H446        H  0.27729735  0.24548830  0.75999943     0.32100
H447        H  0.42450386  0.34109219  0.76246698     0.38000
H448        H  0.34088954  0.19936717  0.85056985     0.32400
H449        H  0.43039909  0.25814266  0.85413553     0.31300
H450        H  0.54096158  0.35838237  0.84030193     0.33000
H451        H  0.55369291  0.38830232  0.80029565     0.32000
H452        H  0.30974011  0.11984507  0.81951175     0.36000
H453        H  0.38280702  0.12530902  0.80871833     0.28700
H454        H  0.32676801  0.39894571  0.81906036     0.32900
H455        H  0.50635315  0.43677158  0.77754037     0.35800
H456        H  0.47059095  0.30951556  0.85677921     0.28400
H457        H  0.35723968  0.11675653  0.79471791     0.41300
H458        H  0.22887258  0.20838515  0.78804012     0.31300
H459        H  0.22481328  0.19601065  0.81889810     0.38900
H460        H  0.53063831  0.41561641  0.80645594     0.30800
H461        H  0.32866845  0.28672916  0.75769085     0.30900
H462        H  0.36925931  0.42468815  0.80877490     0.31100
Zr463      Zr  0.99039850  0.32441901  0.70035779     2.17500
O464        O  0.06425737  0.39375287  0.69411662    -0.51200
O465        O  0.01776978  0.30097853  0.68013917    -0.74400
O466        O  0.05665558  0.33989596  0.71471535    -0.81200
O467        O  0.92385690  0.37423882  0.68109228    -0.83000
O468        O  0.03201384  0.28126063  0.73034691    -0.78600
O469        O  0.99384200  0.39182710  0.69026201    -0.90200
O470        O  0.96490492  0.22614433  0.67453238    -0.76200
O471        O  0.97060040  0.24727617  0.70652758    -0.85700
O472        O  0.92641537  0.27590152  0.68558345    -0.85400
O473        O  0.97088639  0.31944005  0.72444627    -0.72100
O474        O  0.93008691  0.34274212  0.70474576    -0.84300
Zr475      Zr  0.82576637  0.20924047  0.72084310     2.26400
Zr476      Zr  0.94830370  0.24039548  0.73022917     2.06300
Zr477      Zr  0.86584332  0.29377455  0.69003848     2.10000
Zr478      Zr  0.90576871  0.19824224  0.69233773     1.78800
O479        O  0.82420402  0.33684416  0.68838962    -0.93100
O480        O  0.94620037  0.15439503  0.69550628    -0.40900
O481        O  0.84535047  0.21597018  0.69684122    -0.77500
O482        O  0.88387868  0.18811926  0.71629129    -0.96200
O483        O  0.88945464  0.25948350  0.73485314    -0.89500
O484        O  0.84507375  0.28634235  0.71386434    -0.92300
C485        C  0.00246205  0.26495796  0.67230558     1.01400
C486        C  0.96831308  0.40221998  0.68299193     1.14300
C487        C  0.06369459  0.31826880  0.72449948     1.05100
O488        O  0.95980601  0.17325567  0.72933533    -0.94500
O489        O  0.89730733  0.19348844  0.74864978    -0.90200
O490        O  0.82418175  0.17923246  0.74386405    -0.83400
C491        C  0.85425820  0.17698262  0.75165829     1.11800
O492        O  0.97603648  0.41072410  0.73496375    -0.96500
Zr493      Zr  0.90883593  0.33590992  0.72845388     1.88900
O494        O  0.78408204  0.23738458  0.73457107    -0.73100
O495        O  0.97946118  0.25998672  0.75357733    -0.52400
O496        O  0.91991165  0.34279142  0.75333107    -0.97100
O497        O  0.90286249  0.40241543  0.72041277    -0.54300
O498        O  0.83465166  0.31334758  0.73982772    -0.73600
C499        C  0.79418902  0.27619033  0.74036753     0.98700
O500        O  0.77018893  0.12546558  0.72224514    -0.62500
O501        O  0.85850192  0.27932728  0.66529500    -0.57300
O502        O  0.75895348  0.18588495  0.70654429    -0.93900
O503        O  0.78000002  0.23398744  0.68791399    -0.92400
O504        O  0.86165577  0.16709794  0.67115167    -0.92700
O505        O  0.85036975  0.11456872  0.69253527    -0.91500
C506        C  0.74931641  0.19859879  0.69516340     1.17500
H507        H  0.93444048  0.28208341  0.67595511     0.33500
H508        H  0.87284774  0.15624726  0.71910748     0.44300
H509        H  0.81933828  0.29208235  0.71457986     0.37900
H510        H  0.99716705  0.34112215  0.72993691     0.34400
H511        H  0.94301608  0.13870643  0.68655097     0.26100
H512        H  0.99884094  0.24518376  0.75473967     0.32100
H513        H  0.94326939  0.33314032  0.75512896     0.38000
H514        H  0.87908608  0.15508898  0.66590001     0.32400
H515        H  0.83221257  0.28362427  0.66247853     0.31300
H516        H  0.80874135  0.32822804  0.67928631     0.33000
H517        H  0.89481889  0.41430549  0.72871265     0.32000
H518        H  0.82134342  0.11180350  0.69630479     0.36000
H519        H  0.76453209  0.11420750  0.71260204     0.28700
H520        H  0.08684862  0.38308028  0.69237942     0.32900
H521        H  0.96426061  0.42500491  0.74165068     0.35800
H522        H  0.88635240  0.30636436  0.66121162     0.28400
H523        H  0.78782017  0.11142836  0.72623572     0.41300
H524        H  0.96388305  0.16713844  0.73907313     0.31300
H525        H  0.97968702  0.17825162  0.69605173     0.38900
H526        H  0.87446164  0.38853368  0.71464785     0.30800
H527        H  0.00183327  0.29405101  0.75350568     0.30900
H528        H  0.07575813  0.41367635  0.70245874     0.31100
Zr529      Zr  0.98991917  0.65050144  0.48442907     2.17500
O530        O  0.06137570  0.64763663  0.48812911    -0.51200
O531        O  0.02123195  0.70509546  0.50361216    -0.74400
O532        O  0.05535172  0.70153940  0.46970547    -0.81200
O533        O  0.92656170  0.53973610  0.50659957    -0.83000
O534        O  0.02506681  0.71507711  0.45052570    -0.78600
O535        O  0.99626512  0.59250480  0.49720128    -0.90200
O536        O  0.96935281  0.72779866  0.50966365    -0.76200
O537        O  0.97019528  0.70733905  0.47758127    -0.85700
O538        O  0.92865343  0.63844760  0.49988584    -0.85400
O539        O  0.96554516  0.62972280  0.46089132    -0.72100
O540        O  0.92857227  0.57082453  0.48192853    -0.84300
Zr541      Zr  0.82133705  0.59657304  0.46628121     2.26400
Zr542      Zr  0.94296999  0.68570581  0.45446913     2.06300
Zr543      Zr  0.86708519  0.55908254  0.49726042     2.10000
Zr544      Zr  0.90786581  0.69467740  0.49256073     1.78800
O545        O  0.82654803  0.47405977  0.49879915    -0.93100
O546        O  0.94811443  0.77878812  0.48843159    -0.40900
O547        O  0.84614500  0.61554573  0.48978648    -0.77500
O548        O  0.88103395  0.67690933  0.46905687    -0.96200
O549        O  0.88257100  0.60652496  0.45147741    -0.89500
O550        O  0.84108322  0.53979332  0.47395268    -0.92300
C551        C  0.00697081  0.72656553  0.51146414     1.01400
C552        C  0.97117524  0.55711283  0.50477986     1.14300
C553        C  0.05899667  0.71813931  0.45758173     1.05100
O554        O  0.95532901  0.76419691  0.45763661    -0.94500
O555        O  0.88877071  0.67019520  0.43587211    -0.90200
O556        O  0.81476658  0.62451879  0.44367419    -0.83400
C557        C  0.84448878  0.64877276  0.43428931     1.11800
O558        O  0.96775911  0.53810352  0.45441824    -0.96500
Zr559      Zr  0.90243912  0.55056499  0.45879606     1.88900
O560        O  0.77795694  0.52491618  0.45326948    -0.73100
O561        O  0.96898467  0.71695647  0.43128981    -0.52400
O562        O  0.91687283  0.55140417  0.43417574    -0.97100
O563        O  0.89278238  0.47610604  0.46641016    -0.54300
O564        O  0.82719274  0.49780095  0.44827186    -0.73600
C565        C  0.78719062  0.49516351  0.44779842     0.98700
O566        O  0.76379330  0.62152058  0.46392770    -0.62500
O567        O  0.86156973  0.56451169  0.52212897    -0.57300
O568        O  0.75780906  0.55817915  0.48242814    -0.93900
O569        O  0.78403761  0.53852306  0.50155522    -0.92400
O570        O  0.86565375  0.68410392  0.51403112    -0.92700
O571        O  0.85629370  0.72725998  0.49298624    -0.91500
C572        C  0.75218853  0.54185605  0.49468019     1.17500
H573        H  0.93799797  0.64186184  0.50939657     0.33500
H574        H  0.86968116  0.69709915  0.46592548     0.44300
H575        H  0.81493721  0.50826181  0.47381831     0.37900
H576        H  0.99046499  0.63178647  0.45522046     0.34400
H577        H  0.94801122  0.79264171  0.49746778     0.26100
H578        H  0.99540951  0.74919910  0.43245117     0.32100
H579        H  0.90525161  0.51825558  0.43176716     0.38000
H580        H  0.87553512  0.66645519  0.52003996     0.32400
H581        H  0.84241350  0.57946719  0.52346968     0.31300
H582        H  0.79336499  0.46369903  0.49705296     0.33000
H583        H  0.87673351  0.45437721  0.45868709     0.32000
H584        H  0.83411382  0.71171317  0.48533518     0.36000
H585        H  0.73353562  0.59260695  0.46243027     0.28700
H586        H  0.08617288  0.67992490  0.49033015     0.32900
H587        H  0.98981299  0.55454332  0.46203980     0.35800
H588        H  0.84126673  0.53178718  0.52518776     0.28400
H589        H  0.76122779  0.63294118  0.47313479     0.41300
H590        H  0.98941124  0.78497795  0.45660773     0.31300
H591        H  0.98116829  0.78798477  0.48692956     0.38900
H592        H  0.86932104  0.46577483  0.47388336     0.30800
H593        H  0.98280245  0.69901853  0.42732315     0.30900
H594        H  0.07018628  0.64020011  0.47911984     0.31100
Zr595      Zr  0.37252962  0.00386806  0.37003805     2.17500
O596        O  0.37873505  0.93330672  0.36885122    -0.51200
O597        O  0.32071166  0.96625845  0.35058202    -0.74400
O598        O  0.32018886  0.94112384  0.38549462    -0.81200
O599        O  0.48880273  0.07089408  0.35061312    -0.83000
O600        O  0.28237508  0.96828652  0.39873627    -0.78600
O601        O  0.43512250  0.99946892  0.35898722    -0.90200
O602        O  0.29491560  0.01385446  0.34280310    -0.76200
O603        O  0.31267810  0.02180412  0.37424988    -0.85700
O604        O  0.38489926  0.06182978  0.35321788    -0.85400
O605        O  0.38519736  0.03193183  0.39339637    -0.72100
O606        O  0.44967054  0.06855450  0.37387025    -0.84300
Zr607      Zr  0.41276278  0.17412846  0.38525209     2.26400
Zr608      Zr  0.32607988  0.05231385  0.39724447     2.06300
Zr609      Zr  0.46147198  0.12690308  0.35713330     2.10000
Zr610      Zr  0.32555563  0.08079189  0.35797220     1.78800
O611        O  0.54617541  0.17330217  0.35642736    -0.93100
O612        O  0.24238607  0.04345329  0.36286056    -0.40900
O613        O  0.40167710  0.14556399  0.36201415    -0.77500
O614        O  0.33553047  0.11085389  0.38105887    -0.96200
O615        O  0.40221435  0.11632910  0.40148285    -0.89500
O616        O  0.47273969  0.15623062  0.38019213    -0.92300
C617        C  0.29796660  0.97678369  0.34202136     1.01400
C618        C  0.47322381  0.02662893  0.35271189     1.14300
C619        C  0.28956588  0.93583754  0.39447444     1.05100
O620        O  0.24646560  0.03775737  0.39665705    -0.94500
O621        O  0.32215831  0.10701074  0.41309455    -0.90200
O622        O  0.37420961  0.17994007  0.40607926    -0.83400
C623        C  0.34258580  0.15157129  0.41447344     1.11800
O624        O  0.47588652  0.03813819  0.40597053    -0.96500
Zr625      Zr  0.46154887  0.09841584  0.39681778     1.88900
O626        O  0.47959244  0.22148552  0.39983954    -0.73100
O627        O  0.32229407  0.02587425  0.42093986    -0.52400
O628        O  0.45279187  0.09224178  0.42177792    -0.97100
O629        O  0.54062849  0.11651632  0.39132648    -0.54300
O630        O  0.50905646  0.17550842  0.40658225    -0.73600
C631        C  0.50940766  0.21442121  0.40619427     0.98700
O632        O  0.38540166  0.22985521  0.38212098    -0.62500
O633        O  0.45714319  0.12742775  0.33207009    -0.57300
O634        O  0.45645950  0.23683385  0.36930934    -0.93900
O635        O  0.48091960  0.20880931  0.35160224    -0.92400
O636        O  0.33864820  0.11405009  0.33490570    -0.92700
O637        O  0.29469511  0.13191301  0.35243640    -0.91500
C638        C  0.47563095  0.24109707  0.35753351     1.17500
H639        H  0.38355576  0.05081396  0.34392865     0.33500
H640        H  0.31316601  0.12070308  0.38293826     0.44300
H641        H  0.50342465  0.18351980  0.38064106     0.37900
H642        H  0.38137911  0.00772272  0.39973481     0.34400
H643        H  0.22788294  0.04310772  0.35392483     0.26100
H644        H  0.28863126  0.00650068  0.42306983     0.32100
H645        H  0.42449878  0.06153654  0.42341284     0.38000
H646        H  0.36692585  0.11414706  0.33158122     0.32400
H647        H  0.48728337  0.15435252  0.32913120     0.31300
H648        H  0.55403639  0.17802080  0.34649387     0.33000
H649        H  0.56025802  0.13751889  0.39880079     0.32000
H650        H  0.29718628  0.14883449  0.36109650     0.36000
H651        H  0.37412657  0.22514623  0.37249540     0.28700
H652        H  0.34717306  0.90723742  0.36662866     0.32900
H653        H  0.50298488  0.05468693  0.41219499     0.35800
H654        H  0.45862154  0.09961603  0.32901709     0.28400
H655        H  0.35651616  0.21815948  0.38761650     0.41300
H656        H  0.22667817  0.00364056  0.39521884     0.31300
H657        H  0.23233875  0.01022850  0.36465906     0.38900
H658        H  0.54936702  0.13683702  0.38308264     0.30800
H659        H  0.33388214  0.00351507  0.42067152     0.30900
H660        H  0.38514252  0.92708321  0.37834701     0.31100
Zr661      Zr  0.34222735  0.97855189  0.64856005     2.17500
O662        O  0.41423921  0.05199587  0.65308522    -0.51200
O663        O  0.32188793  0.00924275  0.66880085    -0.74400
O664        O  0.35714567  0.04360565  0.63308448    -0.81200
O665        O  0.38640637  0.91299668  0.67032038    -0.83000
O666        O  0.29885167  0.01699832  0.61737290    -0.78600
O667        O  0.40879153  0.98124993  0.65892257    -0.90200
O668        O  0.24737720  0.95868568  0.67531438    -0.76200
O669        O  0.26513594  0.95986596  0.64322006    -0.85700
O670        O  0.29398998  0.91684182  0.66422152    -0.85400
O671        O  0.33359834  0.95415050  0.62487801    -0.72100
O672        O  0.35746341  0.91526817  0.64489346    -0.84300
Zr673      Zr  0.22100795  0.81083074  0.63047373     2.26400
Zr674      Zr  0.25485318  0.93352577  0.61989120     2.06300
Zr675      Zr  0.30845221  0.85357002  0.66054417     2.10000
Zr676      Zr  0.21638457  0.89713460  0.65826154     1.78800
O677        O  0.35354021  0.81379410  0.66092345    -0.93100
O678        O  0.17327168  0.93775693  0.65409885    -0.40900
O679        O  0.23093656  0.83424849  0.65422742    -0.77500
O680        O  0.20306323  0.87143499  0.63469608    -0.96200
O681        O  0.27066792  0.87183380  0.61543104    -0.89500
O682        O  0.29770870  0.82873009  0.63709007    -0.92300
C683        C  0.28701890  0.99564934  0.67704559     1.01400
C684        C  0.41615852  0.95654695  0.66754865     1.14300
C685        C  0.33610466  0.04936437  0.62282902     1.05100
O686        O  0.19388733  0.95373843  0.62185565    -0.94500
O687        O  0.19763992  0.88120572  0.60378674    -0.90200
O688        O  0.18653813  0.80864526  0.60808059    -0.83400
C689        C  0.18106194  0.83807606  0.60081688     1.11800
O690        O  0.42192141  0.95287370  0.61374805    -0.96500
Zr691      Zr  0.34671147  0.88932289  0.62147543     1.88900
O692        O  0.24553763  0.76498906  0.61707856    -0.73100
O693        O  0.27109810  0.95632166  0.59571141    -0.52400
O694        O  0.34756816  0.89595482  0.59647395    -0.97100
O695        O  0.41469070  0.88306182  0.62734287    -0.54300
O696        O  0.32228877  0.81162011  0.61203110    -0.73600
C697        C  0.28400429  0.77202053  0.61178476     0.98700
O698        O  0.13743080  0.75460494  0.63056266    -0.62500
O699        O  0.29477034  0.84390725  0.68531354    -0.57300
O700        O  0.19857547  0.74588807  0.64553731    -0.93900
O701        O  0.24785786  0.76824095  0.66384789    -0.92400
O702        O  0.18861272  0.85863947  0.68046625    -0.92700
O703        O  0.13300818  0.84193777  0.65958248    -0.91500
C704        C  0.21189533  0.73716111  0.65693750     1.17500
H705        H  0.30140581  0.92597141  0.67374207     0.33500
H706        H  0.17116018  0.86096250  0.63218695     0.44300
H707        H  0.30214734  0.80204259  0.63680856     0.37900
H708        H  0.35496558  0.97923002  0.61893724     0.34400
H709        H  0.15636154  0.93445463  0.66282604     0.26100
H710        H  0.25944161  0.97825531  0.59410376     0.32100
H711        H  0.37061822  0.88724289  0.59332673     0.38000
H712        H  0.17440068  0.87541489  0.68495337     0.32400
H713        H  0.30650883  0.82287695  0.68811471     0.31300
H714        H  0.37346963  0.82596234  0.66920553     0.33000
H715        H  0.41737007  0.86439498  0.61979729     0.32000
H716        H  0.12947653  0.81212414  0.65615991     0.36000
H717        H  0.12754148  0.75187169  0.64031081     0.28700
H718        H  0.40508714  0.07584053  0.65477042     0.32900
H719        H  0.43121888  0.97728903  0.62091118     0.35800
H720        H  0.31723180  0.87457105  0.68935347     0.28400
H721        H  0.12265961  0.77084721  0.62610054     0.41300
H722        H  0.19444000  0.96835110  0.61289771     0.31300
H723        H  0.19719305  0.97134140  0.65368871     0.38900
H724        H  0.40489034  0.86223892  0.63549393     0.30800
H725        H  0.30545044  0.97573957  0.59502883     0.30900
H726        H  0.43209692  0.06134658  0.64433111     0.31100
Zr727      Zr  0.34056905  0.34762124  0.53263986     2.17500
O728        O  0.41199879  0.34688212  0.52690902    -0.51200
O729        O  0.32026454  0.29873016  0.51188795    -0.74400
O730        O  0.35585669  0.29646708  0.54739410    -0.81200
O731        O  0.39031334  0.46895297  0.51566758    -0.83000
O732        O  0.29496363  0.25944478  0.56219883    -0.78600
O733        O  0.40819785  0.41434952  0.52297900    -0.90200
O734        O  0.24654877  0.27716572  0.50535186    -0.76200
O735        O  0.26300263  0.28836094  0.53774513    -0.85700
O736        O  0.29315852  0.36396439  0.51765429    -0.85400
O737        O  0.33031070  0.35800983  0.55679273    -0.72100
O738        O  0.35541367  0.42498740  0.53808381    -0.84300
Zr739      Zr  0.21772996  0.38948689  0.55250508     2.26400
Zr740      Zr  0.25103681  0.29935843  0.56151766     2.06300
Zr741      Zr  0.30772329  0.44101016  0.52304619     2.10000
Zr742      Zr  0.21520627  0.30466981  0.52315641     1.78800
O743        O  0.35049126  0.52613029  0.52300708    -0.93100
O744        O  0.17302380  0.21962527  0.52490152    -0.40900
O745        O  0.22943992  0.38134967  0.52848433    -0.77500
O746        O  0.20016156  0.31171785  0.54703366    -0.96200
O747        O  0.26643929  0.37593915  0.56721889    -0.89500
O748        O  0.29507039  0.44893372  0.54680233    -0.92300
C749        C  0.28564186  0.27893943  0.50352518     1.01400
C750        C  0.41902301  0.45330457  0.51721874     1.14300
C751        C  0.33355592  0.26691892  0.55703232     1.05100
O752        O  0.18671651  0.21967749  0.55873325    -0.94500
O753        O  0.19968907  0.29880161  0.57953001    -0.90200
O754        O  0.17674583  0.35019727  0.57352153    -0.83400
C755        C  0.17644484  0.31966078  0.58175934     1.11800
O756        O  0.42015320  0.44650094  0.56727295    -0.96500
Zr757      Zr  0.34331211  0.43482731  0.56183502     1.88900
O758        O  0.24307760  0.45709678  0.56743683    -0.73100
O759        O  0.26542825  0.28296668  0.58496679    -0.52400
O760        O  0.34502485  0.42081662  0.58640521    -0.97100
O761        O  0.40301511  0.51593720  0.55795496    -0.54300
O762        O  0.31856573  0.48380621  0.57345762    -0.73600
C763        C  0.28112047  0.48609852  0.57351053     0.98700
O764        O  0.13460241  0.36370782  0.55150069    -0.62500
O765        O  0.29909961  0.43840650  0.49809301    -0.57300
O766        O  0.19860219  0.43750977  0.53883434    -0.93900
O767        O  0.24904266  0.46829770  0.52083683    -0.92400
O768        O  0.18850278  0.32263265  0.50189658    -0.92700
O769        O  0.13139887  0.27378844  0.52225169    -0.91500
C770        C  0.21309970  0.46249523  0.52794386     1.17500
H771        H  0.30093571  0.36391591  0.50806892     0.33500
H772        H  0.16810363  0.28967292  0.54929418     0.44300
H773        H  0.29969719  0.47994864  0.54785310     0.37900
H774        H  0.35144792  0.35356287  0.56255302     0.34400
H775        H  0.15775325  0.20860504  0.51582930     0.26100
H776        H  0.25276135  0.24875442  0.58539321     0.32100
H777        H  0.34096169  0.38907563  0.58697996     0.38000
H778        H  0.17692075  0.29406928  0.49620958     0.32400
H779        H  0.26506806  0.41939196  0.49656520     0.31300
H780        H  0.34884792  0.53497994  0.51336704     0.33000
H781        H  0.40702483  0.53179404  0.56692049     0.32000
H782        H  0.12697426  0.29898870  0.52613137     0.36000
H783        H  0.12661906  0.36008575  0.54158396     0.28700
H784        H  0.40248906  0.31386823  0.52499034     0.32900
H785        H  0.43104438  0.46779370  0.57531128     0.35800
H786        H  0.30718082  0.47054100  0.49545734     0.28400
H787        H  0.11821016  0.33116377  0.55499362     0.41300
H788        H  0.20121187  0.20227539  0.55485439     0.31300
H789        H  0.19735364  0.21063645  0.52506716     0.38900
H790        H  0.38811700  0.52885254  0.55193456     0.30800
H791        H  0.29964413  0.29698765  0.58574094     0.30900
H792        H  0.43053334  0.35480790  0.53550423     0.31100
C793        C  0.39961005  0.14265386  0.59611448    -0.05400
C794        C  0.37341906  0.16549205  0.59652008     0.08800
C795        C  0.34274300  0.15726958  0.60765096    -0.02800
C796        C  0.33368536  0.12178231  0.61729432    -0.01000
C797        C  0.35639095  0.09553361  0.61606062    -0.04600
C798        C  0.39123272  0.10775528  0.60591362     0.02400
C799        C  0.37193064  0.19196919  0.58424123     0.09200
C800        C  0.31858764  0.18355938  0.60869452     0.35100
C801        C  0.41553204  0.08165685  0.60479257     0.38600
C802        C  0.33924574  0.16764951  0.57370681    -0.05000
C803        C  0.33068580  0.19260710  0.56347027     0.02200
C804        C  0.35450721  0.24185961  0.56379985    -0.04600
C805        C  0.39068595  0.26607612  0.57344321    -0.00800
C806        C  0.39941454  0.24107256  0.58366343    -0.03400
C807        C  0.31244333  0.11694004  0.57391215     0.35900
C808        C  0.41610584  0.31678955  0.57359810     0.39500
C809        C  0.29578505  0.16775004  0.55296646     0.38600
C810        C  0.43477589  0.26582184  0.59403330     0.35500
C811        C  0.43299095  0.15311175  0.58509483     0.36200
C812        C  0.29867517  0.10998365  0.62791423     0.39500
N813        N  0.26807109  0.14790798  0.54455628    -0.38600
N814        N  0.29109423  0.07650114  0.57413385    -0.40200
N815        N  0.43626917  0.35724956  0.57374070    -0.37900
N816        N  0.46305541  0.28562494  0.60230056    -0.40300
N817        N  0.29959685  0.20479646  0.60955520    -0.40100
N818        N  0.27055621  0.10027974  0.63634404    -0.37700
N819        N  0.43498336  0.06091055  0.60380170    -0.38800
N820        N  0.45961594  0.16153312  0.57628602    -0.40400
C821        C  0.32048291  0.68151775  0.60427526    -0.05400
C822        C  0.28297508  0.64889508  0.59620848     0.08800
C823        C  0.24626728  0.65704264  0.59290004    -0.02800
C824        C  0.24712739  0.69784610  0.59759229    -0.01000
C825        C  0.28458357  0.73068442  0.60584119    -0.04600
C826        C  0.32067642  0.72148441  0.60942205     0.02400
C827        C  0.28319409  0.60687323  0.59064049     0.09200
C828        C  0.20759946  0.62326185  0.58458881     0.35100
C829        C  0.35601544  0.75058784  0.61935667     0.38600
C830        C  0.27427804  0.56888564  0.59932801    -0.05000
C831        C  0.27413476  0.52925136  0.59383844     0.02200
C832        C  0.28338787  0.52788634  0.57972047    -0.04600
C833        C  0.29406887  0.56666066  0.57119055    -0.00800
C834        C  0.29321465  0.60565026  0.57658765    -0.03400
C835        C  0.26525313  0.57068890  0.61387565     0.35900
C836        C  0.30559140  0.56659973  0.55676116     0.39500
C837        C  0.26446452  0.48995897  0.60265500     0.38600
C838        C  0.30220985  0.64452917  0.56764146     0.35500
C839        C  0.35904104  0.67383005  0.60721099     0.36200
C840        C  0.20849889  0.70485105  0.59418295     0.39500
N841        N  0.25666754  0.45853707  0.60967487    -0.38600
N842        N  0.25851210  0.57246710  0.62550454    -0.40200
N843        N  0.31487853  0.56760416  0.54522223    -0.37900
N844        N  0.30878100  0.67540087  0.56054761    -0.40300
N845        N  0.17707225  0.59635737  0.57787858    -0.40100
N846        N  0.17688047  0.70921257  0.59153579    -0.37700
N847        N  0.38394267  0.77268365  0.62748848    -0.38800
N848        N  0.38958544  0.66731149  0.60944641    -0.40400
C849        C  0.28137904  0.15877649  0.44756209    -0.05400
C850        C  0.31181866  0.20486734  0.45190417     0.08800
C851        C  0.34955582  0.23498130  0.44343114    -0.02800
C852        C  0.35773454  0.21895878  0.43080481    -0.01000
C853        C  0.32975399  0.17109823  0.42683058    -0.04600
C854        C  0.29027488  0.14163631  0.43525505     0.02400
C855        C  0.30356049  0.22239335  0.46528744     0.09200
C856        C  0.38035460  0.28282663  0.44785687     0.35100
C857        C  0.25760343  0.09363453  0.43141027     0.38600
C858        C  0.31489951  0.20944651  0.47795033    -0.05000
C859        C  0.30830789  0.22709795  0.49050293     0.02200
C860        C  0.29174642  0.25903307  0.49044319    -0.04600
C861        C  0.28115747  0.27250366  0.47770345    -0.00800
C862        C  0.28597965  0.25339110  0.46524478    -0.03400
C863        C  0.33407285  0.17850621  0.47800600     0.35900
C864        C  0.26764900  0.30801097  0.47726796     0.39500
C865        C  0.31743623  0.21149145  0.50348600     0.38600
C866        C  0.27337480  0.26606782  0.45229648     0.35500
C867        C  0.24041528  0.12902257  0.45580963     0.36200
C868        C  0.39490800  0.25284357  0.42206173     0.39500
N869        N  0.32442335  0.19894219  0.51387474    -0.38600
N870        N  0.34948113  0.15390240  0.47798412    -0.40200
N871        N  0.25735378  0.33665699  0.47680806    -0.37900
N872        N  0.26345072  0.27619092  0.44195429    -0.40300
N873        N  0.40455735  0.32088899  0.45148100    -0.40100
N874        N  0.42447850  0.28055341  0.41520831    -0.37700
N875        N  0.23135684  0.05523826  0.42852230    -0.38800
N876        N  0.20774476  0.10550853  0.46239269    -0.40400
C877        C  0.09814839  0.80924852  0.53687565    -0.05400
C878        C  0.08471863  0.78089290  0.54878446     0.08800
C879        C  0.04569011  0.73554871  0.54845471    -0.02800
C880        C  0.01971598  0.71854705  0.53629505    -0.01000
C881        C  0.03309114  0.74661453  0.52430672    -0.04600
C882        C  0.07208881  0.79215994  0.52463039     0.02400
C883        C  0.11113711  0.79824846  0.56187318     0.09200
C884        C  0.03278972  0.70617451  0.56065772     0.35100
C885        C  0.08474027  0.82155554  0.51248660     0.38600
C886        C  0.09390429  0.81484989  0.57242832    -0.05000
C887        C  0.11599349  0.82664427  0.58535639     0.02200
C888        C  0.15569763  0.82234990  0.58768069    -0.04600
C889        C  0.17386990  0.80735222  0.57693517    -0.00800
C890        C  0.15083518  0.79407822  0.56417067    -0.03400
C891        C  0.05281722  0.81875256  0.57002061     0.35900
C892        C  0.21772843  0.80822569  0.57872288     0.39500
C893        C  0.09768510  0.84281772  0.59630292     0.38600
C894        C  0.16724915  0.77514170  0.55347991     0.35500
C895        C  0.13893027  0.85563208  0.53724895     0.36200
C896        C  0.97956478  0.67171871  0.53618622     0.39500
N897        N  0.08319791  0.85578635  0.60504454    -0.38600
N898        N  0.01992799  0.82161149  0.56805431    -0.40200
N899        N  0.25294739  0.80937022  0.58008235    -0.37900
N900        N  0.17998639  0.75966336  0.54496166    -0.40300
N901        N  0.02284238  0.68304590  0.57043221    -0.40100
N902        N  0.94789973  0.63415074  0.53644380    -0.37700
N903        N  0.09460221  0.84529524  0.50285232    -0.38800
N904        N  0.17167856  0.89251519  0.53758360    -0.40400
C905        C  0.25556911  0.83991659  0.42052043    -0.05400
C906        C  0.20675701  0.81998882  0.42030790     0.08800
C907        C  0.18539990  0.83183346  0.40969937    -0.02800
C908        C  0.21305740  0.86605169  0.39994036    -0.01000
C909        C  0.26189965  0.89004562  0.40119439    -0.04600
C910        C  0.28326999  0.87543568  0.41103494     0.02400
C911        C  0.17771210  0.79115208  0.43205852     0.09200
C912        C  0.13514671  0.81153031  0.40949353     0.35100
C913        C  0.33367590  0.89931368  0.41202287     0.38600
C914        C  0.17304700  0.81374798  0.44379937    -0.05000
C915        C  0.13656837  0.78842469  0.45321461     0.02200
C916        C  0.10477669  0.74085982  0.45077601    -0.04600
C917        C  0.11307157  0.71710221  0.44006163    -0.00800
C918        C  0.14944355  0.74236066  0.43061466    -0.03400
C919        C  0.20359114  0.86368775  0.44557973     0.35900
C920        C  0.08323427  0.66694422  0.43856576     0.39500
C921        C  0.13015652  0.81166703  0.46496678     0.38600
C922        C  0.15601523  0.71888404  0.41894487     0.35500
C923        C  0.27717226  0.82579576  0.43098971     0.36200
C924        C  0.19148038  0.87751188  0.38877387     0.39500
N925        N  0.12516611  0.83009981  0.47440308    -0.38600
N926        N  0.22806636  0.90354791  0.44690259    -0.40200
N927        N  0.05970139  0.62685831  0.43747528    -0.37900
N928        N  0.16121229  0.70021758  0.40959985    -0.40300
N929        N  0.09511617  0.79564767  0.40945369    -0.40100
N930        N  0.17439736  0.88625861  0.37973931    -0.37700
N931        N  0.37390795  0.91859599  0.41275541    -0.38800
N932        N  0.29442834  0.81450662  0.43933975    -0.40400
C933        C  0.58370338  0.31092054  0.43141636    -0.05400
C934        C  0.62715760  0.33238836  0.42451502     0.08800
C935        C  0.63186140  0.31408540  0.41188180    -0.02800
C936        C  0.59308022  0.27539537  0.40595595    -0.01000
C937        C  0.54941533  0.25483940  0.41263231    -0.04600
C938        C  0.54475255  0.27219290  0.42542481     0.02400
C939        C  0.66835778  0.37429706  0.43046123     0.09200
C940        C  0.67681221  0.33480385  0.40504625     0.35100
C941        C  0.50030570  0.24916870  0.43256823     0.38600
C942        C  0.69730868  0.36869427  0.43993521    -0.05000
C943        C  0.73666846  0.40818637  0.44540385     0.02200
C944        C  0.74799675  0.45365460  0.44116230    -0.04600
C945        C  0.71975495  0.45907767  0.43126717    -0.00800
C946        C  0.67995287  0.41946406  0.42598212    -0.03400
C947        C  0.68683374  0.32211014  0.44392788     0.35900
C948        C  0.73219555  0.50520350  0.42619399     0.39500
C949        C  0.76405100  0.40167979  0.45587233     0.38600
C950        C  0.65122964  0.42496863  0.41573724     0.35500
C951        C  0.57919307  0.32802950  0.44475307     0.36200
C952        C  0.59803599  0.25676093  0.39292168     0.39500
N953        N  0.78516387  0.39565348  0.46428272    -0.38600
N954        N  0.67879014  0.28501667  0.44706790    -0.40200
N955        N  0.74176034  0.54171886  0.42199462    -0.37900
N956        N  0.62840326  0.42922448  0.40750926    -0.40300
N957        N  0.71260786  0.35108502  0.39956788    -0.40100
N958        N  0.60197553  0.24179794  0.38255213    -0.37700
N959        N  0.46488249  0.23036716  0.43827843    -0.38800
N960        N  0.57507233  0.34100533  0.45545376    -0.40400
C961        C  0.13242337  0.49396580  0.50742202    -0.05400
C962        C  0.10926720  0.50289671  0.51830538     0.08800
C963        C  0.12450599  0.50354869  0.53190209    -0.02800
C964        C  0.16279647  0.49712779  0.53457389    -0.01000
C965        C  0.18356714  0.48391834  0.52391542    -0.04600
C966        C  0.16818992  0.48301917  0.51022567     0.02400
C967        C  0.07081761  0.51447513  0.51569968     0.09200
C968        C  0.09972867  0.50963295  0.54334893     0.35100
C969        C  0.18739227  0.46879268  0.49907045     0.38600
C970        C  0.02619976  0.48057100  0.51073135    -0.05000
C971        C  0.99090083  0.49240935  0.50833426     0.02200
C972        C  0.99906197  0.53775770  0.51139134    -0.04600
C973        C  0.04233051  0.57010179  0.51749924    -0.00800
C974        C  0.07821260  0.55927269  0.51914275    -0.03400
C975        C  0.01677729  0.43355110  0.50798507     0.35900
C976        C  0.05096927  0.61594604  0.52167719     0.39500
C977        C  0.94699859  0.45861168  0.50218237     0.38600
C978        C  0.12352062  0.59516740  0.52408490     0.35500
C979        C  0.11913838  0.49573548  0.49332006     0.36200
C980        C  0.18033836  0.50420278  0.54857044     0.39500
N981        N  0.91183718  0.43163660  0.49729479    -0.38600
N982        N  0.00951273  0.39606097  0.50580365    -0.40200
N983        N  0.05872354  0.65275508  0.52501044    -0.37900
N984        N  0.15943464  0.62385121  0.52810914    -0.40300
N985        N  0.07991863  0.51441728  0.55245190    -0.40100
N986        N  0.19309232  0.51006004  0.55986302    -0.37700
N987        N  0.20243033  0.45721951  0.49012013    -0.38800
N988        N  0.10834900  0.49723857  0.48208127    -0.40400
C989        C  0.62263409  0.47425965  0.50483502    -0.05400
C990        C  0.61282962  0.51129776  0.50603836     0.08800
C991        C  0.65044087  0.55772486  0.50530315    -0.02800
C992        C  0.69657939  0.56695006  0.50323921    -0.01000
C993        C  0.70616654  0.53018056  0.50108470    -0.04600
C994        C  0.66879116  0.48363060  0.50208103     0.02400
C995        C  0.56331283  0.50184457  0.50821073     0.09200
C996        C  0.64150876  0.59637484  0.50615747     0.35100
C997        C  0.67748312  0.44539881  0.49972561     0.38600
C998        C  0.55013437  0.51304237  0.52088504    -0.05000
C999        C  0.50373592  0.50287624  0.52313186     0.02200
C1000       C  0.46919237  0.48075524  0.51287428    -0.04600
C1001       C  0.48295127  0.47229673  0.49989271    -0.00800
C1002       C  0.52961499  0.48278838  0.49756126    -0.03400
C1003       C  0.58398383  0.53364313  0.53190557     0.35900
C1004       C  0.44844740  0.45124849  0.48908115     0.39500
C1005       C  0.49143416  0.51395854  0.53633957     0.38600
C1006       C  0.54277033  0.47289439  0.48428463     0.35500
C1007       C  0.58498272  0.42639068  0.50624801     0.36200
C1008       C  0.73445857  0.61495765  0.50316911     0.39500
N1009       N  0.48339374  0.52384123  0.54700282    -0.38600
N1010       N  0.61084752  0.55042164  0.54071302    -0.40200
N1011       N  0.42074840  0.43470908  0.48047526    -0.37900
N1012       N  0.55350001  0.46479799  0.47374283    -0.40300
N1013       N  0.63439511  0.62720163  0.50684344    -0.40100
N1014       N  0.76423545  0.65349087  0.50329746    -0.37700
N1015       N  0.68432193  0.41478827  0.49781918    -0.38800
N1016       N  0.55477204  0.38822798  0.50737852    -0.40400
C1017       C  0.02838177  0.26495600  0.63411246    -0.05400
C1018       C  0.07673691  0.28193935  0.63422902     0.08800
C1019       C  0.10069466  0.29190788  0.64689697    -0.02800
C1020       C  0.07645433  0.28566292  0.65941826    -0.01000
C1021       C  0.02810081  0.26947592  0.65930417    -0.04600
C1022       C  0.00420616  0.25929343  0.64656353     0.02400
C1023       C  0.10254306  0.29147053  0.62086551     0.09200
C1024       C  0.15036934  0.30895224  0.64700583     0.35100
C1025       C  0.95526843  0.24570319  0.64613672     0.38600
C1026       C  0.11682643  0.33391577  0.61391607    -0.05000
C1027       C  0.13960881  0.34273157  0.60105010     0.02200
C1028       C  0.14876565  0.30891921  0.59493706    -0.04600
C1029       C  0.13258684  0.26543509  0.60186786    -0.00800
C1030       C  0.11000811  0.25713415  0.61478337    -0.03400
C1031       C  0.10765250  0.36860690  0.62004507     0.35900
C1032       C  0.13720166  0.22806343  0.59561620     0.39500
C1033       C  0.15326639  0.38698736  0.59431401     0.38600
C1034       C  0.09371197  0.21285129  0.62182401     0.35500
C1035       C  0.00375250  0.25404324  0.62107500     0.36200
C1036       C  0.10118926  0.29550214  0.67240958     0.39500
N1037       N  0.16337701  0.42215232  0.58898355    -0.38600
N1038       N  0.10021319  0.39619531  0.62489639    -0.40200
N1039       N  0.14067156  0.19804776  0.59069602    -0.37900
N1040       N  0.08061179  0.17763520  0.62750167    -0.40300
N1041       N  0.19001255  0.32249490  0.64710778    -0.40100
N1042       N  0.12089742  0.30336501  0.68277962    -0.37700
N1043       N  0.91637063  0.23528627  0.64571778    -0.38800
N1044       N  0.98445242  0.24538364  0.61062308    -0.40400
C1045       C  0.02250032  0.53430405  0.67693181    -0.05400
C1046       C  0.06694109  0.54530246  0.67171097     0.08800
C1047       C  0.07474466  0.50792551  0.66866688    -0.02800
C1048       C  0.03865595  0.46105659  0.67012852    -0.01000
C1049       C  0.99579986  0.44992816  0.67655203    -0.04600
C1050       C  0.98799324  0.48707778  0.67993031     0.02400
C1051       C  0.10499894  0.59528370  0.66847478     0.09200
C1052       C  0.12086706  0.51761416  0.66454014     0.35100
C1053       C  0.94587422  0.47705202  0.68724241     0.38600
C1054       C  0.12828527  0.62927238  0.67892028    -0.05000
C1055       C  0.16470565  0.67538568  0.67552862     0.02200
C1056       C  0.18103221  0.68710249  0.66178328    -0.04600
C1057       C  0.16041318  0.65118602  0.65167880    -0.00800
C1058       C  0.12093115  0.60744405  0.65476764    -0.03400
C1059       C  0.11502879  0.61672770  0.69318706     0.35900
C1060       C  0.18058160  0.65840148  0.63799311     0.39500
C1061       C  0.18415560  0.71091005  0.68612588     0.38600
C1062       C  0.09617477  0.57486798  0.64366106     0.35500
C1063       C  0.01234834  0.57151248  0.67936108     0.36200
C1064       C  0.04648335  0.42377087  0.66543442     0.39500
N1065       N  0.19951527  0.73928678  0.69460776    -0.38600
N1066       N  0.10449519  0.60660612  0.70458619    -0.40200
N1067       N  0.19658056  0.66330049  0.62710035    -0.37900
N1068       N  0.07634207  0.54886872  0.63483836    -0.40300
N1069       N  0.15769141  0.52536143  0.66132922    -0.40100
N1070       N  0.05283200  0.39416192  0.66170024    -0.37700
N1071       N  0.91244782  0.46911549  0.69320964    -0.38800
N1072       N  0.00407232  0.60114878  0.68128692    -0.40400
C1073       C  0.61844082  0.10881552  0.69749962    -0.05400
C1074       C  0.60610041  0.09408329  0.68372073     0.08800
C1075       C  0.64014869  0.11760458  0.67331604    -0.02800
C1076       C  0.68650591  0.15298191  0.67674999    -0.01000
C1077       C  0.69892627  0.16774531  0.69060042    -0.04600
C1078       C  0.66323868  0.14643113  0.70080516     0.02400
C1079       C  0.55648578  0.05565322  0.68035280     0.09200
C1080       C  0.62732354  0.10546333  0.65901493     0.35100
C1081       C  0.67196984  0.16322392  0.71491569     0.38600
C1082       C  0.51856529  0.06268006  0.68320108    -0.05000
C1083       C  0.47216360  0.02648556  0.68105888     0.02200
C1084       C  0.46233693  0.98393279  0.67467048    -0.04600
C1085       C  0.49989366  0.97644314  0.67183705    -0.00800
C1086       C  0.54653657  0.01150376  0.67503416    -0.03400
C1087       C  0.52720057  0.10809522  0.68783934     0.35900
C1088       C  0.49064959  0.93361915  0.66503992     0.39500
C1089       C  0.43405832  0.03375309  0.68508104     0.38600
C1090       C  0.58437691  0.00240857  0.67263426     0.35500
C1091       C  0.58483091  0.08462889  0.70844406     0.36200
C1092       C  0.72172821  0.17224845  0.66605976     0.39500
N1093       N  0.40393506  0.03975602  0.68839663    -0.38600
N1094       N  0.53392273  0.14425181  0.69152824    -0.40200
N1095       N  0.48294452  0.89936138  0.65957157    -0.37900
N1096       N  0.61472359  0.99531764  0.67069417    -0.40300
N1097       N  0.61677226  0.09563397  0.64761559    -0.40100
N1098       N  0.74978888  0.18721572  0.65748346    -0.37700
N1099       N  0.67828396  0.17616769  0.72620453    -0.38800
N1100       N  0.55768275  0.06533084  0.71706868    -0.40400
C1101       C  0.36633094  0.11463886  0.73510700    -0.05400
C1102       C  0.32357861  0.09934979  0.72828927     0.08800
C1103       C  0.28861453  0.10511057  0.73463575    -0.02800
C1104       C  0.29643470  0.12666538  0.74765988    -0.01000
C1105       C  0.34054335  0.14506291  0.75422763    -0.04600
C1106       C  0.37514066  0.13790147  0.74791691     0.02400
C1107       C  0.31353616  0.07311610  0.71498888     0.09200
C1108       C  0.24410870  0.08810501  0.72778333     0.35100
C1109       C  0.42018343  0.15478430  0.75438288     0.38600
C1110       C  0.29468220  0.02431292  0.71527828    -0.05000
C1111       C  0.28570268  0.99904722  0.70288564     0.02200
C1112       C  0.29410867  0.02229702  0.69002749    -0.04600
C1113       C  0.31114990  0.07095190  0.68976585    -0.00800
C1114       C  0.32157406  0.09642682  0.70221737    -0.03400
C1115       C  0.28445803  0.00020864  0.72843498     0.35900
C1116       C  0.31616715  0.09440488  0.67671860     0.39500
C1117       C  0.26939479  0.94932838  0.70348812     0.38600
C1118       C  0.34066731  0.14661266  0.70191593     0.35500
C1119       C  0.40111620  0.10584411  0.72895937     0.36200
C1120       C  0.25795098  0.12782809  0.75443786     0.39500
N1121       N  0.25656461  0.90974129  0.70415920    -0.38600
N1122       N  0.27620849  0.98142822  0.73899505    -0.40200
N1123       N  0.31962043  0.11296261  0.66630914    -0.37900
N1124       N  0.35609830  0.18671219  0.70164888    -0.40300
N1125       N  0.20866945  0.07463633  0.72231096    -0.40100
N1126       N  0.22690365  0.12829513  0.75974344    -0.37700
N1127       N  0.45600727  0.16787578  0.75957528    -0.38800
N1128       N  0.42871725  0.09849899  0.72411526    -0.40400
C1129       C  0.26618994  0.38555658  0.75651027    -0.05400
C1130       C  0.21886799  0.36934850  0.75930203     0.08800
C1131       C  0.20033938  0.35195279  0.77252884    -0.02800
C1132       C  0.22800609  0.34634292  0.78247880    -0.01000
C1133       C  0.27351298  0.35704946  0.77902274    -0.04600
C1134       C  0.29363342  0.37961947  0.76642072     0.02400
C1135       C  0.18658455  0.36243457  0.74779359     0.09200
C1136       C  0.15166307  0.33583315  0.77542649     0.35100
C1137       C  0.34191087  0.39427242  0.76338739     0.38600
C1138       C  0.16843598  0.32100305  0.73995860    -0.05000
C1139       C  0.13058146  0.30864297  0.73112490     0.02200
C1140       C  0.11098789  0.33775386  0.73009706    -0.04600
C1141       C  0.13252340  0.38173844  0.73672238    -0.00800
C1142       C  0.17042662  0.39402913  0.74563020    -0.03400
C1143       C  0.18693271  0.28972609  0.74162587     0.35900
C1144       C  0.11338736  0.41252453  0.73529099     0.39500
C1145       C  0.11023234  0.26484207  0.72359179     0.38600
C1146       C  0.19130296  0.43789559  0.75309506     0.35500
C1147       C  0.28524636  0.40429099  0.74300986     0.36200
C1148       C  0.20877134  0.32644459  0.79586280     0.39500
N1149       N  0.09383227  0.22986164  0.71761889    -0.38600
N1150       N  0.20171918  0.26482756  0.74295197    -0.40200
N1151       N  0.09807086  0.43703821  0.73415419    -0.37900
N1152       N  0.20799374  0.47293884  0.75904021    -0.40300
N1153       N  0.11275029  0.32271611  0.77768115    -0.40100
N1154       N  0.19376723  0.31093143  0.80660332    -0.37700
N1155       N  0.38046122  0.40609887  0.76099582    -0.38800
N1156       N  0.30019556  0.41880932  0.73218572    -0.40400
C1157       C  0.71148767  0.31912322  0.75109879    -0.05400
C1158       C  0.67720556  0.28024145  0.75841696     0.08800
C1159       C  0.68185823  0.24053835  0.76029242    -0.02800
C1160       C  0.72100573  0.23976086  0.75494223    -0.01000
C1161       C  0.75548792  0.27863342  0.74739118    -0.04600
C1162       C  0.75016658  0.31824504  0.74548019     0.02400
C1163       C  0.63532767  0.28078242  0.76376296     0.09200
C1164       C  0.64537662  0.19988446  0.76736811     0.35100
C1165       C  0.78214335  0.35704259  0.73686830     0.38600
C1166       C  0.60019143  0.27582299  0.75455583    -0.05000
C1167       C  0.56180648  0.27885446  0.75946730     0.02200
C1168       C  0.55769187  0.28505619  0.77365227    -0.04600
C1169       C  0.59275320  0.28990078  0.78286664    -0.00800
C1170       C  0.63142874  0.28756882  0.77793748    -0.03400
C1171       C  0.60315518  0.26634353  0.74010628     0.35900
C1172       C  0.58910582  0.29735616  0.79745272     0.39500
C1173       C  0.52663978  0.27567296  0.74996989     0.38600
C1174       C  0.66672837  0.29121157  0.78748642     0.35500
C1175       C  0.70591998  0.35951711  0.74887588     0.36200
C1176       C  0.72485551  0.19836390  0.75709201     0.39500
N1177       N  0.49868411  0.27336666  0.74238221    -0.38600
N1178       N  0.60584320  0.25851680  0.72862488    -0.40200
N1179       N  0.58652891  0.30332253  0.80909488    -0.37900
N1180       N  0.69447480  0.29354988  0.79516632    -0.40300
N1181       N  0.61607857  0.16760295  0.77299448    -0.40100
N1182       N  0.72700378  0.16482867  0.75877790    -0.37700
N1183       N  0.80646544  0.38846088  0.72995770    -0.38800
N1184       N  0.70127815  0.39149839  0.74695414    -0.40400
C1185       C  0.63725080  0.76056671  0.08085336    -0.05400
C1186       C  0.66743289  0.80923200  0.08178411     0.08800
C1187       C  0.70385547  0.83214599  0.07209964    -0.02800
C1188       C  0.71356040  0.80581451  0.06264242    -0.01000
C1189       C  0.68676725  0.75656358  0.06281951    -0.04600
C1190       C  0.64685097  0.73414934  0.07135673     0.02400
C1191       C  0.66710862  0.83522497  0.09432627     0.09200
C1192       C  0.73357944  0.88259205  0.07262178     0.35100
C1193       C  0.61827723  0.68357608  0.07135226     0.38600
C1194       C  0.69943791  0.84327637  0.10492232    -0.05000
C1195       C  0.70703299  0.87570552  0.11541305     0.02200
C1196       C  0.68239198  0.90015664  0.11532191    -0.04600
C1197       C  0.64633821  0.88816008  0.10567134    -0.00800
C1198       C  0.63865121  0.85560642  0.09514105    -0.03400
C1199       C  0.72696773  0.82029577  0.10448873     0.35900
C1200       C  0.61942015  0.91173594  0.10607335     0.39500
C1201       C  0.74203485  0.88590554  0.12587355     0.38600
C1202       C  0.60326234  0.84490830  0.08479301     0.35500
C1203       C  0.59852253  0.73743960  0.09038430     0.36200
C1204       C  0.75259088  0.82923197  0.05321249     0.39500
N1205       N  0.76989254  0.89386120  0.13422717    -0.38600
N1206       N  0.74891326  0.80199176  0.10401171    -0.40200
N1207       N  0.59805945  0.93066615  0.10647771    -0.37900
N1208       N  0.57478286  0.83629219  0.07659492    -0.40300
N1209       N  0.75739263  0.92279400  0.07309790    -0.40100
N1210       N  0.78377272  0.84819883  0.04571686    -0.37700
N1211       N  0.59546921  0.64322891  0.07141908    -0.38800
N1212       N  0.56759649  0.71905966  0.09799369    -0.40400
C1213       C  0.77766022  0.42695456  0.09779071    -0.05400
C1214       C  0.74641252  0.38143041  0.09303799     0.08800
C1215       C  0.71316680  0.37453987  0.08292266    -0.02800
C1216       C  0.71172248  0.41310910  0.07731670    -0.01000
C1217       C  0.74333965  0.45896270  0.08192887    -0.04600
C1218       C  0.77632049  0.46570414  0.09221351     0.02400
C1219       C  0.74891077  0.34045472  0.09845944     0.09200
C1220       C  0.68120777  0.32762065  0.07803966     0.35100
C1221       C  0.80938718  0.51254470  0.09690185     0.38600
C1222       C  0.72234600  0.31600534  0.11008048    -0.05000
C1223       C  0.72361622  0.27653594  0.11498659     0.02200
C1224       C  0.75111517  0.26096258  0.10818335    -0.04600
C1225       C  0.77791283  0.28565437  0.09656939    -0.00800
C1226       C  0.77670025  0.32527903  0.09170550    -0.03400
C1227       C  0.69374240  0.33166723  0.11696915     0.35900
C1228       C  0.80611278  0.26996094  0.08946425     0.39500
C1229       C  0.69799183  0.25312020  0.12738024     0.38600
C1230       C  0.80373856  0.35037308  0.07967884     0.35500
C1231       C  0.81164211  0.43378678  0.10826461     0.36200
C1232       C  0.67988022  0.40553702  0.06608473     0.39500
N1233       N  0.67771244  0.23488043  0.13732766    -0.38600
N1234       N  0.67095605  0.34430432  0.12240688    -0.40200
N1235       N  0.82870375  0.25781899  0.08366424    -0.37900
N1236       N  0.82521119  0.37040423  0.07007375    -0.40300
N1237       N  0.65585020  0.29015006  0.07416761    -0.40100
N1238       N  0.65458270  0.39880162  0.05704194    -0.37700
N1239       N  0.83596995  0.54990388  0.10058848    -0.38800
N1240       N  0.83867876  0.43901379  0.11662412    -0.40400
C1241       C  0.95705871  0.66503355  0.13976489    -0.05400
C1242       C  0.94841655  0.69999953  0.13480309     0.08800
C1243       C  0.96356533  0.74152982  0.14236522    -0.02800
C1244       C  0.98866763  0.74879269  0.15471027    -0.01000
C1245       C  0.99871339  0.71436051  0.15953457    -0.04600
C1246       C  0.98222587  0.67212862  0.15203666     0.02400
C1247       C  0.92382725  0.69298074  0.12142770     0.09200
C1248       C  0.95323258  0.77675027  0.13739865     0.35100
C1249       C  0.99251700  0.63639143  0.15658796     0.38600
C1250       C  0.87548960  0.67602348  0.12123282    -0.05000
C1251       C  0.85175538  0.66621570  0.10857829     0.02200
C1252       C  0.87645398  0.67373882  0.09606714    -0.04600
C1253       C  0.92499864  0.69153504  0.09627616    -0.00800
C1254       C  0.94867618  0.70138100  0.10895047    -0.03400
C1255       C  0.85032137  0.66876937  0.13408083     0.35900
C1256       C  0.95090506  0.70111632  0.08348944     0.39500
C1257       C  0.80165896  0.64702363  0.10847442     0.38600
C1258       C  0.99879697  0.72098002  0.10920425     0.35500
C1259       C  0.94024274  0.62172737  0.13213982     0.36200
C1260       C  0.00286542  0.79119869  0.16253522     0.39500
N1261       N  0.76169454  0.63158782  0.10846728    -0.38600
N1262       N  0.83042300  0.66336866  0.14434464    -0.40200
N1263       N  0.97215033  0.70921792  0.07338210    -0.37900
N1264       N  0.03881831  0.73690141  0.10943642    -0.40300
N1265       N  0.94477801  0.80472795  0.13347260    -0.40100
N1266       N  0.01358424  0.82521987  0.16861545    -0.37700
N1267       N  0.00058314  0.60789109  0.16026971    -0.38800
N1268       N  0.92686004  0.58715979  0.12609355    -0.40400
C1269       C  0.94354606  0.35174114  0.17416876    -0.05400
C1270       C  0.93824844  0.39095100  0.17165951     0.08800
C1271       C  0.89424314  0.38309103  0.16719353    -0.02800
C1272       C  0.85683470  0.33694181  0.16473781    -0.01000
C1273       C  0.86267842  0.29781893  0.16676969    -0.04600
C1274       C  0.90616549  0.30571056  0.17177010     0.02400
C1275       C  0.97745739  0.44006428  0.17501567     0.09200
C1276       C  0.88761020  0.42274293  0.16504859     0.35100
C1277       C  0.91284510  0.26624942  0.17426426     0.38600
C1278       C  0.00650897  0.47153789  0.16465107    -0.05000
C1279       C  0.04037992  0.51866983  0.16798175     0.02200
C1280       C  0.04595298  0.53476147  0.18174832    -0.04600
C1281       C  0.01897417  0.50195593  0.19213769    -0.00800
C1282       C  0.98499464  0.45543747  0.18880514    -0.03400
C1283       C  0.00087893  0.45556212  0.15051736     0.35900
C1284       C  0.02503032  0.51631785  0.20643182     0.39500
C1285       C  0.06792591  0.55103629  0.15717079     0.38600
C1286       C  0.95626917  0.42355522  0.19960541     0.35500
C1287       C  0.98794112  0.35891526  0.17907136     0.36200
C1288       C  0.81237668  0.32966399  0.15990107     0.39500
N1289       N  0.08995813  0.57675776  0.14850228    -0.38600
N1290       N  0.99642896  0.44271148  0.13923266    -0.40200
N1291       N  0.02911642  0.52684656  0.21791818    -0.37900
N1292       N  0.93322995  0.39797484  0.20816687    -0.40300
N1293       N  0.88252959  0.45455217  0.16333792    -0.40100
N1294       N  0.77677386  0.32385162  0.15612911    -0.37700
N1295       N  0.91858721  0.23508129  0.17640697    -0.38800
N1296       N  0.02339756  0.36479469  0.18301191    -0.40400
C1297       C  0.39652549  0.87523263  0.17314119    -0.05400
C1298       C  0.43003283  0.89783573  0.18370491     0.08800
C1299       C  0.41702158  0.88237156  0.19740496    -0.02800
C1300       C  0.37248210  0.84405621  0.20045723    -0.01000
C1301       C  0.33756815  0.82322765  0.19010600    -0.04600
C1302       C  0.35034308  0.83894411  0.17635120     0.02400
C1303       C  0.48011515  0.93532210  0.18059297     0.09200
C1304       C  0.44926956  0.90717085  0.20855155     0.35100
C1305       C  0.31553682  0.81944116  0.16558777     0.38600
C1306       C  0.49190050  0.98045360  0.17570786    -0.05000
C1307       C  0.53908175  0.01444100  0.17267145     0.02200
C1308       C  0.57538632  0.00486084  0.17533053    -0.04600
C1309       C  0.56365145  0.96115941  0.18135081    -0.00800
C1310       C  0.51666612  0.92617775  0.18334022    -0.03400
C1311       C  0.45548767  0.99188711  0.17370049     0.35900
C1312       C  0.60022891  0.95133472  0.18516007     0.39500
C1313       C  0.54986685  0.05810280  0.16611165     0.38600
C1314       C  0.50592589  0.87991495  0.18785004     0.35500
C1315       C  0.40933578  0.89006271  0.15898021     0.36200
C1316       C  0.36289331  0.82638425  0.21448841     0.39500
N1317       N  0.55828214  0.09282866  0.16080058    -0.38600
N1318       N  0.42648847  0.00115986  0.17209775    -0.40200
N1319       N  0.62897557  0.94299476  0.18823802    -0.37900
N1320       N  0.49738099  0.84307219  0.19145746    -0.40300
N1321       N  0.47500547  0.92720672  0.21739383    -0.40100
N1322       N  0.35618813  0.81292955  0.22573443    -0.37700
N1323       N  0.28763725  0.80392321  0.15700872    -0.38800
N1324       N  0.41971677  0.90236117  0.14770554    -0.40400
C1325       C  0.28435242  0.90776006  0.30923662    -0.05400
C1326       C  0.24309952  0.90372577  0.30383305     0.08800
C1327       C  0.21659903  0.91759443  0.31181390    -0.02800
C1328       C  0.23282801  0.93832362  0.32480711    -0.01000
C1329       C  0.27620420  0.94609707  0.32982599    -0.04600
C1330       C  0.30094171  0.92881110  0.32220090     0.02400
C1331       C  0.22721111  0.88446257  0.28971808     0.09200
C1332       C  0.17263271  0.91065628  0.30655758     0.35100
C1333       C  0.34404519  0.93351623  0.32741121     0.38600
C1334       C  0.19002541  0.83843142  0.28807658    -0.05000
C1335       C  0.17457441  0.82027459  0.27478809     0.02200
C1336       C  0.19654033  0.84807303  0.26300078    -0.04600
C1337       C  0.23355273  0.89441360  0.26469430    -0.00800
C1338       C  0.24875930  0.91256769  0.27803129    -0.03400
C1339       C  0.16773470  0.80981270  0.30014446     0.35900
C1340       C  0.25500387  0.92405559  0.25277747     0.39500
C1341       C  0.13685770  0.77239688  0.27338112     0.38600
C1342       C  0.28621849  0.96042113  0.27978536     0.35500
C1343       C  0.30981337  0.89048071  0.30133987     0.36200
C1344       C  0.20412203  0.95054276  0.33311733     0.39500
N1345       N  0.10659433  0.73418684  0.27254011    -0.38600
N1346       N  0.14997043  0.78742870  0.30983146    -0.40200
N1347       N  0.27226575  0.94822969  0.24337173    -0.37900
N1348       N  0.31609144  0.99857183  0.28123063    -0.40300
N1349       N  0.13742042  0.90453815  0.30231595    -0.40100
N1350       N  0.18069419  0.95975773  0.33968637    -0.37700
N1351       N  0.37806966  0.93656921  0.33162666    -0.38800
N1352       N  0.32991814  0.87659972  0.29499760    -0.40400
C1353       C  0.81402040  0.70823277  0.37208839    -0.05400
C1354       C  0.78521217  0.66736196  0.37968694     0.08800
C1355       C  0.74368115  0.63177017  0.37383580    -0.02800
C1356       C  0.72981948  0.63784693  0.36063217    -0.01000
C1357       C  0.75721010  0.68017004  0.35325705    -0.04600
C1358       C  0.80038788  0.71444513  0.35886835     0.02400
C1359       C  0.79919448  0.66133671  0.39380176     0.09200
C1360       C  0.71460138  0.58931277  0.38160924     0.35100
C1361       C  0.83142980  0.75583215  0.35097316     0.38600
C1362       C  0.78166310  0.67285078  0.40550029    -0.05000
C1363       C  0.79499318  0.66712160  0.41882332     0.02200
C1364       C  0.82723409  0.65142612  0.42044895    -0.04600
C1365       C  0.84447556  0.63961144  0.40868297    -0.00800
C1366       C  0.83004887  0.64409364  0.39542212    -0.03400
C1367       C  0.75071564  0.69157742  0.40377519     0.35900
C1368       C  0.87628267  0.62176320  0.41019104     0.39500
C1369       C  0.77647836  0.67857288  0.43080830     0.38600
C1370       C  0.84678587  0.63088980  0.38337787     0.35500
C1371       C  0.85722874  0.74444500  0.37806359     0.36200
C1372       C  0.68657973  0.60078808  0.35494887     0.39500
N1373       N  0.76148236  0.68748406  0.44036331    -0.38600
N1374       N  0.72624648  0.70679035  0.40239044    -0.40200
N1375       N  0.90173591  0.60763284  0.41134510    -0.37900
N1376       N  0.85987166  0.62030969  0.37372470    -0.40300
N1377       N  0.69133738  0.55557282  0.38783452    -0.40100
N1378       N  0.65240180  0.57080275  0.35039237    -0.37700
N1379       N  0.85666784  0.78883588  0.34474256    -0.38800
N1380       N  0.89159842  0.77336935  0.38285968    -0.40400
C1381       C  0.66880148  0.85013730  0.23236072    -0.05400
C1382       C  0.71265543  0.89001588  0.22965286     0.08800
C1383       C  0.74711246  0.90716056  0.24006041    -0.02800
C1384       C  0.73750658  0.88527325  0.25309700    -0.01000
C1385       C  0.69396379  0.84503802  0.25569577    -0.04600
C1386       C  0.66010494  0.82682994  0.24515890     0.02400
C1387       C  0.72192365  0.91581691  0.21619039     0.09200
C1388       C  0.79257461  0.94747761  0.23734048     0.35100
C1389       C  0.61727606  0.78270678  0.24722083     0.38600
C1390       C  0.72361470  0.95930883  0.21582992    -0.05000
C1391       C  0.73450314  0.98517161  0.20346491     0.02200
C1392       C  0.74265823  0.96733017  0.19117751    -0.04600
C1393       C  0.74003158  0.92336730  0.19143612    -0.00800
C1394       C  0.73015341  0.89786643  0.20392848    -0.03400
C1395       C  0.71364163  0.97721976  0.22825073     0.35900
C1396       C  0.74840674  0.90490050  0.17889480     0.39500
C1397       C  0.73625214  0.02987771  0.20339791     0.38600
C1398       C  0.72900358  0.85345268  0.20420177     0.35500
C1399       C  0.63223758  0.83353873  0.22209633     0.36200
C1400       C  0.77235629  0.90433847  0.26389808     0.39500
N1401       N  0.73750442  0.06548289  0.20355316    -0.38600
N1402       N  0.70571581  0.99120348  0.23821722    -0.40200
N1403       N  0.75520257  0.89030143  0.16886692    -0.37900
N1404       N  0.72806004  0.81797709  0.20437729    -0.40300
N1405       N  0.82883606  0.97968618  0.23518109    -0.40100
N1406       N  0.80005831  0.91961984  0.27253625    -0.37700
N1407       N  0.58330144  0.74733497  0.24882745    -0.38800
N1408       N  0.60270941  0.82024253  0.21401105    -0.40400
C1409       C  0.83839217  0.65099317  0.27238806    -0.05400
C1410       C  0.81947454  0.62967410  0.25958664     0.08800
C1411       C  0.77124781  0.60897959  0.25719470    -0.02800
C1412       C  0.74241215  0.61215084  0.26729060    -0.01000
C1413       C  0.76222545  0.63782107  0.27947230    -0.04600
C1414       C  0.80990731  0.65584587  0.28223012     0.02400
C1415       C  0.85169294  0.63622865  0.24801103     0.09200
C1416       C  0.75224370  0.58830743  0.24388621     0.35100
C1417       C  0.83024776  0.68266570  0.29468475     0.38600
C1418       C  0.86934867  0.60568527  0.24630473    -0.05000
C1419       C  0.90589082  0.61693921  0.23687714     0.02200
C1420       C  0.92591157  0.65975455  0.22956713    -0.04600
C1421       C  0.90587569  0.68862105  0.23062966    -0.00800
C1422       C  0.86849724  0.67656394  0.23972766    -0.03400
C1423       C  0.85221376  0.56463333  0.25500661     0.35900
C1424       C  0.92515329  0.73195225  0.22287089     0.39500
C1425       C  0.92529587  0.58633948  0.23560096     0.38600
C1426       C  0.84928466  0.70728417  0.24131919     0.35500
C1427       C  0.88793206  0.67131001  0.27491889     0.36200
C1428       C  0.69297466  0.59229674  0.26469338     0.39500
N1429       N  0.94065748  0.56182834  0.23457698    -0.38600
N1430       N  0.83878938  0.53221606  0.26208770    -0.40200
N1431       N  0.94053746  0.76672418  0.21679899    -0.37900
N1432       N  0.83377546  0.73154602  0.24271702    -0.40300
N1433       N  0.73735739  0.57244597  0.23318616    -0.40100
N1434       N  0.65351672  0.57635614  0.26264273    -0.37700
N1435       N  0.84644358  0.70434321  0.30457592    -0.38800
N1436       N  0.92747345  0.68748105  0.27686667    -0.40400
C1437       C  0.39559041  0.69502683  0.27443180    -0.05400
C1438       C  0.40301446  0.73166771  0.26548501     0.08800
C1439       C  0.44871424  0.76707004  0.26226291    -0.02800
C1440       C  0.48711464  0.76546215  0.26781365    -0.01000
C1441       C  0.47987637  0.72757877  0.27632132    -0.04600
C1442       C  0.43382016  0.69294610  0.27987187     0.02400
C1443       C  0.36239924  0.73194768  0.25908468     0.09200
C1444       C  0.45604410  0.80475829  0.25305007     0.35100
C1445       C  0.42532716  0.65644634  0.28970682     0.38600
C1446       C  0.34582642  0.76055188  0.26449245    -0.05000
C1447       C  0.30731695  0.76048134  0.25837294     0.02200
C1448       C  0.28460600  0.73084884  0.24709233    -0.04600
C1449       C  0.30125999  0.70224886  0.24168681    -0.00800
C1450       C  0.34023156  0.70298869  0.24764196    -0.03400
C1451       C  0.36811191  0.78964401  0.27642610     0.35900
C1452       C  0.27957007  0.67349744  0.22962781     0.39500
C1453       C  0.29083388  0.79059400  0.26372439     0.38600
C1454       C  0.35791240  0.67427638  0.24193895     0.35500
C1455       C  0.34836721  0.65950895  0.27804235     0.36200
C1456       C  0.53390959  0.80289496  0.26470583     0.39500
N1457       N  0.27777401  0.81473389  0.26795469    -0.38600
N1458       N  0.38569222  0.81283534  0.28596937    -0.40200
N1459       N  0.26254606  0.65064079  0.21998668    -0.37900
N1460       N  0.37204899  0.65138912  0.23742009    -0.40300
N1461       N  0.46168832  0.83472220  0.24569316    -0.40100
N1462       N  0.57106836  0.83330267  0.26233326    -0.37700
N1463       N  0.41745624  0.62727106  0.29764666    -0.38800
N1464       N  0.31064959  0.63127787  0.28087085    -0.40400
C1465       C  0.51045850  0.44006680  0.32795836    -0.05400
C1466       C  0.51491446  0.42720333  0.34150077     0.08800
C1467       C  0.52599120  0.46024488  0.35223372    -0.02800
C1468       C  0.53568203  0.50645126  0.34927623    -0.01000
C1469       C  0.53383911  0.51999972  0.33559112    -0.04600
C1470       C  0.51883453  0.48559980  0.32510387     0.02400
C1471       C  0.50622919  0.37834751  0.34439131     0.09200
C1472       C  0.52823490  0.44689769  0.36630547     0.35100
C1473       C  0.51314083  0.49744052  0.31113762     0.38600
C1474       C  0.54337897  0.37022147  0.34746528    -0.05000
C1475       C  0.53439499  0.32447399  0.35073286     0.02200
C1476       C  0.48847155  0.28608859  0.35035868    -0.04600
C1477       C  0.45211199  0.29382439  0.34607670    -0.00800
C1478       C  0.46061359  0.33955333  0.34350311    -0.03400
C1479       C  0.59086924  0.40895510  0.34723163     0.35900
C1480       C  0.40544702  0.25441121  0.34436254     0.39500
C1481       C  0.57215927  0.31700143  0.35480545     0.38600
C1482       C  0.42201636  0.34680922  0.34024079     0.35500
C1483       C  0.49885656  0.40681574  0.31679398     0.36200
C1484       C  0.54977872  0.54075243  0.36020025     0.39500
N1485       N  0.60234666  0.31099881  0.35801588    -0.38600
N1486       N  0.62883758  0.43982867  0.34695270    -0.40200
N1487       N  0.36818516  0.22322222  0.34276790    -0.37900
N1488       N  0.39133405  0.35271677  0.33760429    -0.40300
N1489       N  0.53000622  0.43620001  0.37754445    -0.40100
N1490       N  0.56114071  0.56828527  0.36889273    -0.37700
N1491       N  0.50796326  0.50599640  0.29995128    -0.38800
N1492       N  0.48950308  0.38022116  0.30791274    -0.40400
C1493       C  0.57998063  0.90062180  0.34165604    -0.05400
C1494       C  0.53409170  0.89284389  0.34071773     0.08800
C1495       C  0.49738598  0.84699848  0.33777924    -0.02800
C1496       C  0.50694931  0.81054065  0.33473280    -0.01000
C1497       C  0.55306861  0.81882799  0.33524882    -0.04600
C1498       C  0.58913937  0.86369662  0.33929346     0.02400
C1499       C  0.52439071  0.93253832  0.34329324     0.09200
C1500       C  0.44970670  0.83746030  0.33781117     0.35100
C1501       C  0.63628144  0.87219191  0.34076481     0.38600
C1502       C  0.51134911  0.95230711  0.33242655    -0.05000
C1503       C  0.49930339  0.98728776  0.33513468     0.02200
C1504       C  0.50041833  0.00320706  0.34874178    -0.04600
C1505       C  0.51623036  0.98529120  0.35941233    -0.00800
C1506       C  0.52791099  0.95030172  0.35673856    -0.03400
C1507       C  0.50902692  0.93557955  0.31848189     0.35900
C1508       C  0.51853506  0.00138153  0.37342849     0.39500
C1509       C  0.48324170  0.00485186  0.32401007     0.38600
C1510       C  0.54180532  0.93107150  0.36800009     0.35500
C1511       C  0.61818766  0.94717835  0.34465320     0.36200
C1512       C  0.46963606  0.76510571  0.33043506     0.39500
N1513       N  0.47019688  0.01838297  0.31504504    -0.38600
N1514       N  0.50698340  0.92197320  0.30737057    -0.40200
N1515       N  0.52060943  0.01376167  0.38467981    -0.37900
N1516       N  0.55316734  0.91575386  0.37691503    -0.40300
N1517       N  0.41166928  0.82995489  0.33791071    -0.40100
N1518       N  0.43983514  0.72887158  0.32695922    -0.37700
N1519       N  0.67388676  0.87910569  0.34208295    -0.38800
N1520       N  0.64858487  0.98434469  0.34706502    -0.40400
C1521       C  0.74773598  0.04080421  0.80440883    -0.05400
C1522       C  0.79011350  0.08374840  0.80426925     0.08800
C1523       C  0.81527839  0.10178302  0.81665685    -0.02800
C1524       C  0.79762745  0.07723862  0.82914823    -0.01000
C1525       C  0.75613141  0.03361738  0.82912961    -0.04600
C1526       C  0.73160735  0.01512216  0.81670303     0.02400
C1527       C  0.80845858  0.10908877  0.79093951     0.09200
C1528       C  0.85976982  0.14494258  0.81647887     0.35100
C1529       C  0.68973288  0.96941179  0.81651793     0.38600
C1530       C  0.80784752  0.15079077  0.78827113    -0.05000
C1531       C  0.82380638  0.17368128  0.77549459     0.02200
C1532       C  0.83859227  0.15389646  0.76516714    -0.04600
C1533       C  0.84007429  0.11280079  0.76791243    -0.00800
C1534       C  0.82493164  0.09034745  0.78074467    -0.03400
C1535       C  0.78987997  0.16952028  0.79856940     0.35900
C1536       C  0.85706144  0.09353913  0.75747114     0.39500
C1537       C  0.82720499  0.21868362  0.77321281     0.38600
C1538       C  0.82527202  0.04728212  0.78332700     0.35500
C1539       C  0.72071729  0.02297443  0.79185814     0.36200
C1540       C  0.82268779  0.09599617  0.84193947     0.39500
N1541       N  0.83039340  0.25480791  0.77144692    -0.38600
N1542       N  0.77545636  0.18426573  0.80681654    -0.40200
N1543       N  0.87092171  0.07854320  0.74913204    -0.37900
N1544       N  0.82495442  0.01258100  0.78526982    -0.40300
N1545       N  0.89532445  0.17934538  0.81633016    -0.40100
N1546       N  0.84245426  0.11079999  0.85218979    -0.37700
N1547       N  0.65663094  0.93278793  0.81625932    -0.38800
N1548       N  0.69926269  0.00874178  0.78184270    -0.40400
C1549       C  0.57478335  0.07809267  0.83886286    -0.05400
C1550       C  0.52946845  0.07041931  0.84145400     0.08800
C1551       C  0.49562924  0.02600669  0.84671904    -0.02800
C1552       C  0.50776367  0.99126946  0.85008720    -0.01000
C1553       C  0.55322411  0.99924554  0.84747108    -0.04600
C1554       C  0.58571628  0.04234415  0.84118877     0.02400
C1555       C  0.51738894  0.10810679  0.83760712     0.09200
C1556       C  0.44828284  0.01621017  0.84870961     0.35100
C1557       C  0.63133890  0.05037059  0.83716306     0.38600
C1558       C  0.51928138  0.12126827  0.82366835    -0.05000
C1559       C  0.51142217  0.15811803  0.81983330     0.02200
C1560       C  0.49717256  0.18063455  0.82971070    -0.04600
C1561       C  0.49546117  0.16758183  0.84372525    -0.00800
C1562       C  0.50632674  0.13239042  0.84763987    -0.03400
C1563       C  0.52814989  0.09575058  0.81302951     0.35900
C1564       C  0.48073853  0.18878499  0.85416153     0.39500
C1565       C  0.51806350  0.17220120  0.80543789     0.38600
C1566       C  0.50558296  0.12090726  0.86207226     0.35500
C1567       C  0.61109862  0.12368680  0.83416449     0.36200
C1568       C  0.47408646  0.94824119  0.85675944     0.39500
N1569       N  0.52311786  0.18234696  0.79389136    -0.38600
N1570       N  0.53518594  0.07554988  0.80451085    -0.40200
N1571       N  0.46894946  0.20540392  0.86259667    -0.37900
N1572       N  0.50466471  0.11189615  0.87363233    -0.40300
N1573       N  0.41058480  0.00886635  0.85024401    -0.40100
N1574       N  0.44724060  0.91390184  0.86214521    -0.37700
N1575       N  0.66769484  0.05696413  0.83387459    -0.38800
N1576       N  0.64019004  0.16002733  0.83046398    -0.40400
C1577       C  0.45482379  0.52120653  0.84616249    -0.05400
C1578       C  0.50209902  0.55625028  0.84550679     0.08800
C1579       C  0.53556286  0.54274537  0.84242431    -0.02800
C1580       C  0.52145633  0.49502363  0.83953074    -0.01000
C1581       C  0.47393571  0.45976265  0.84050990    -0.04600
C1582       C  0.44131276  0.47361059  0.84462440     0.02400
C1583       C  0.51553356  0.60633981  0.84906845     0.09200
C1584       C  0.58438150  0.57824670  0.84191068     0.35100
C1585       C  0.39273549  0.43903932  0.84699659     0.38600
C1586       C  0.50778444  0.61687823  0.86258839    -0.05000
C1587       C  0.51456268  0.66153650  0.86584566     0.02200
C1588       C  0.53417557  0.69866298  0.85611204    -0.04600
C1589       C  0.54200608  0.68831268  0.84253929    -0.00800
C1590       C  0.53113525  0.64205526  0.83893526    -0.03400
C1591       C  0.49333253  0.58171530  0.87334186     0.35900
C1592       C  0.56303806  0.72544939  0.83242134     0.39500
C1593       C  0.50074065  0.66905611  0.87937389     0.38600
C1594       C  0.53561171  0.63110719  0.82476475     0.35500
C1595       C  0.41941594  0.53449158  0.84774024     0.36200
C1596       C  0.55545399  0.48274095  0.83489793     0.39500
N1597       N  0.48914220  0.67454011  0.89012503    -0.38600
N1598       N  0.48200864  0.55389986  0.88196562    -0.40200
N1599       N  0.58005011  0.75501994  0.82430696    -0.37900
N1600       N  0.53890800  0.62231866  0.81342348    -0.40300
N1601       N  0.62329498  0.60693096  0.84148200    -0.40100
N1602       N  0.58261511  0.47297621  0.83113465    -0.37700
N1603       N  0.35365888  0.41264217  0.84884553    -0.38800
N1604       N  0.39130256  0.54527080  0.84877741    -0.40400
C1605       C  0.75657102  0.80611736  0.94362740    -0.05400
C1606       C  0.72208941  0.78772782  0.95402692     0.08800
C1607       C  0.68009942  0.78806357  0.95215786    -0.02800
C1608       C  0.67294265  0.80739080  0.94008831    -0.01000
C1609       C  0.70624446  0.82352339  0.92934061    -0.04600
C1610       C  0.74868423  0.82392104  0.93130264     0.02400
C1611       C  0.73003442  0.76818561  0.96701863     0.09200
C1612       C  0.64399575  0.76790918  0.96261389     0.35100
C1613       C  0.78446163  0.84305674  0.92074264     0.38600
C1614       C  0.74526983  0.79561185  0.97911562    -0.05000
C1615       C  0.75266995  0.77701992  0.99133433     0.02200
C1616       C  0.74419199  0.73075462  0.99155815    -0.04600
C1617       C  0.72853924  0.70318909  0.97950956    -0.00800
C1618       C  0.72153950  0.72187971  0.96727998    -0.03400
C1619       C  0.75261015  0.84269085  0.97899596     0.35900
C1620       C  0.71874468  0.65519752  0.97974624     0.39500
C1621       C  0.76920248  0.80538465  0.00367821     0.38600
C1622       C  0.70459122  0.69314972  0.95501010     0.35500
C1623       C  0.80007684  0.80646948  0.94563630     0.36200
C1624       C  0.63288439  0.81386546  0.93915141     0.39500
N1625       N  0.78257078  0.82782392  0.01356291    -0.38600
N1626       N  0.75804121  0.88011236  0.97886029    -0.40200
N1627       N  0.71063797  0.61682314  0.97985377    -0.37900
N1628       N  0.69094595  0.67017688  0.94523153    -0.40300
N1629       N  0.61510529  0.75139412  0.97092274    -0.40100
N1630       N  0.60144139  0.81987329  0.93848007    -0.37700
N1631       N  0.81337691  0.85859159  0.91241915    -0.38800
N1632       N  0.83469076  0.80658675  0.94727775    -0.40400
C1633       C  0.91048995  0.24553848  0.03554155    -0.05400
C1634       C  0.92095055  0.21828180  0.04437445     0.08800
C1635       C  0.95103240  0.20265607  0.03981991    -0.02800
C1636       C  0.97421930  0.21777619  0.02705757    -0.01000
C1637       C  0.96896728  0.25063701  0.01879773    -0.04600
C1638       C  0.93413448  0.26168273  0.02280593     0.02400
C1639       C  0.90115911  0.20635101  0.05866462     0.09200
C1640       C  0.95855684  0.17118026  0.04847590     0.35100
C1641       C  0.92253535  0.29022036  0.01415884     0.38600
C1642       C  0.85570111  0.16888961  0.06085406    -0.05000
C1643       C  0.83831522  0.15564780  0.07436389     0.02200
C1644       C  0.86697819  0.17855864  0.08591982    -0.04600
C1645       C  0.91273864  0.21623412  0.08366447    -0.00800
C1646       C  0.92945125  0.23036256  0.07007976    -0.03400
C1647       C  0.82738972  0.14274217  0.04916627     0.35900
C1648       C  0.94383570  0.23872358  0.09518009     0.39500
C1649       C  0.79047590  0.11846320  0.07623981     0.38600
C1650       C  0.97648926  0.26866905  0.06772445     0.35500
C1651       C  0.87555626  0.25728376  0.03970146     0.36200
C1652       C  0.00310795  0.19859512  0.02268696     0.39500
N1653       N  0.75228679  0.08867266  0.07753772    -0.38600
N1654       N  0.80489180  0.12162543  0.03986473    -0.40200
N1655       N  0.96946671  0.25685705  0.10419622    -0.37900
N1656       N  0.01396397  0.29894572  0.06562966    -0.40300
N1657       N  0.96454194  0.14617255  0.05539954    -0.40100
N1658       N  0.02596934  0.18291132  0.01938800    -0.37700
N1659       N  0.91316973  0.31312600  0.00737057    -0.38800
N1660       N  0.84719288  0.26593420  0.04302158    -0.40400
C1661       C  0.22754210  0.28394762  0.90759883    -0.05400
C1662       C  0.21986854  0.30199636  0.89529735     0.08800
C1663       C  0.19951367  0.33053709  0.89591176    -0.02800
C1664       C  0.18627702  0.34044221  0.90870429    -0.01000
C1665       C  0.19492521  0.32334136  0.92105196    -0.04600
C1666       C  0.21572370  0.29515438  0.92046309     0.02400
C1667       C  0.23657752  0.29412998  0.88176850     0.09200
C1668       C  0.19301707  0.35041693  0.88335410     0.35100
C1669       C  0.22342902  0.27624996  0.93301846     0.38600
C1670       C  0.20473677  0.26448507  0.87167601    -0.05000
C1671       C  0.22109507  0.25971426  0.85866413     0.02200
C1672       C  0.26933635  0.28348934  0.85586254    -0.04600
C1673       C  0.30115423  0.31116073  0.86623935    -0.00800
C1674       C  0.28476129  0.31778264  0.87893249    -0.03400
C1675       C  0.15526642  0.23882447  0.87472264     0.35900
C1676       C  0.35091790  0.33112230  0.86419824     0.39500
C1677       C  0.18846751  0.23057451  0.84813170     0.38600
C1678       C  0.31745949  0.34940811  0.88909480     0.35500
C1679       C  0.24750840  0.25370956  0.90697197     0.36200
C1680       C  0.16388294  0.36852218  0.90913861     0.39500
N1681       N  0.16260452  0.20743947  0.83967247    -0.38600
N1682       N  0.11578036  0.21832998  0.87716094    -0.40200
N1683       N  0.39071454  0.34715836  0.86280886    -0.37900
N1684       N  0.34310536  0.37457093  0.89727939    -0.40300
N1685       N  0.18795055  0.36611494  0.87329085    -0.40100
N1686       N  0.14577976  0.39068884  0.90943316    -0.37700
N1687       N  0.22960048  0.26082623  0.94296559    -0.38800
N1688       N  0.26352124  0.22966747  0.90643627    -0.40400
C1689       C  0.85277166  0.15911724  0.91350156    -0.05400
C1690       C  0.82872027  0.17808860  0.92049310     0.08800
C1691       C  0.78160675  0.16201343  0.91757487    -0.02800
C1692       C  0.75725596  0.12407413  0.90851421    -0.01000
C1693       C  0.78020417  0.10198022  0.90250268    -0.04600
C1694       C  0.82854656  0.12099133  0.90456382     0.02400
C1695       C  0.85306758  0.21255715  0.93164886     0.09200
C1696       C  0.75802331  0.18355267  0.92430949     0.35100
C1697       C  0.85336005  0.10107165  0.89761384     0.38600
C1698       C  0.88307628  0.25980164  0.92826277    -0.05000
C1699       C  0.91803519  0.28890235  0.93757631     0.02200
C1700       C  0.92292155  0.27040659  0.95016708    -0.04600
C1701       C  0.88901987  0.22500618  0.95429637    -0.00800
C1702       C  0.85355571  0.19614646  0.94503896    -0.03400
C1703       C  0.88034823  0.27710068  0.91476985     0.35900
C1704       C  0.89353866  0.20637885  0.96737332     0.39500
C1705       C  0.95156172  0.33668627  0.93374307     0.38600
C1706       C  0.81991788  0.14837663  0.94880893     0.35500
C1707       C  0.90228034  0.17811728  0.91587367     0.36200
C1708       C  0.70802647  0.10625420  0.90616235     0.39500
N1709       N  0.97842680  0.37475364  0.93069837    -0.38600
N1710       N  0.87807467  0.29075043  0.90398555    -0.40200
N1711       N  0.89714198  0.19125473  0.97775534    -0.37900
N1712       N  0.79289327  0.11030729  0.95180069    -0.40300
N1713       N  0.73936835  0.20088334  0.92970107    -0.40100
N1714       N  0.66878017  0.09260129  0.90439790    -0.37700
N1715       N  0.87342441  0.08546221  0.89209134    -0.38800
N1716       N  0.94176475  0.19366296  0.91778885    -0.40400
C1717       C  0.34970198  0.57862250  0.92411579    -0.05400
C1718       C  0.38156227  0.61245592  0.93338486     0.08800
C1719       C  0.37461120  0.60529434  0.94771408    -0.02800
C1720       C  0.33482940  0.56532581  0.95277117    -0.01000
C1721       C  0.30222262  0.53229294  0.94348529    -0.04600
C1722       C  0.31010112  0.53843929  0.92919134     0.02400
C1723       C  0.42109379  0.65700501  0.92807228     0.09200
C1724       C  0.40764295  0.63992084  0.95721253     0.35100
C1725       C  0.27705987  0.50367120  0.91975267     0.38600
C1726       C  0.41301869  0.69277483  0.92352803    -0.05000
C1727       C  0.44971835  0.73421652  0.91789410     0.02200
C1728       C  0.49543045  0.74099618  0.91730360    -0.04600
C1729       C  0.50365393  0.70576087  0.92266080    -0.00800
C1730       C  0.46638738  0.66358131  0.92771514    -0.03400
C1731       C  0.36650266  0.68648075  0.92448508     0.35900
C1732       C  0.55029360  0.71224356  0.92290564     0.39500
C1733       C  0.43905616  0.76804712  0.91199665     0.38600
C1734       C  0.47433309  0.62632002  0.93226599     0.35500
C1735       C  0.35702627  0.58579220  0.90937239     0.36200
C1736       C  0.32660345  0.55912159  0.96751720     0.39500
N1737       N  0.42907583  0.79402895  0.90732925    -0.38600
N1738       N  0.32944927  0.68147481  0.92527443    -0.40200
N1739       N  0.58723947  0.71681086  0.92308982    -0.37900
N1740       N  0.48056699  0.59650472  0.93584682    -0.40300
N1741       N  0.43411141  0.66760097  0.96474655    -0.40100
N1742       N  0.32025041  0.55442602  0.97928539    -0.37700
N1743       N  0.25067212  0.47582728  0.91224853    -0.38800
N1744       N  0.36251280  0.59144577  0.89759685    -0.40400
C1745       C  0.96409623  0.43831620  0.02439716    -0.05400
C1746       C  0.96461760  0.47926342  0.01974345     0.08800
C1747       C  0.00639065  0.51486723  0.01360557    -0.02800
C1748       C  0.04414036  0.50706238  0.01065583    -0.01000
C1749       C  0.04262738  0.46539115  0.01492247    -0.04600
C1750       C  0.00388490  0.43331301  0.02289102     0.02400
C1751       C  0.92203757  0.48517458  0.02187888     0.09200
C1752       C  0.01033778  0.55936282  0.01016180     0.35100
C1753       C  0.00459669  0.39380052  0.02912466     0.38600
C1754       C  0.90466709  0.48349917  0.03530952    -0.05000
C1755       C  0.86373576  0.48596439  0.03741249     0.02200
C1756       C  0.84289998  0.49768774  0.02645021    -0.04600
C1757       C  0.85937035  0.49836301  0.01293799    -0.00800
C1758       C  0.89762540  0.49068561  0.01064556    -0.03400
C1759       C  0.93021851  0.48151262  0.04718244     0.35900
C1760       C  0.83792471  0.50818696  0.00141790     0.39500
C1761       C  0.84313515  0.47637834  0.05109002     0.38600
C1762       C  0.91230812  0.48917228  0.99668634     0.35500
C1763       C  0.92170899  0.39993601  0.03012363     0.36200
C1764       C  0.08356024  0.54086966  0.00263523     0.39500
N1765       N  0.82692933  0.46830528  0.06201294    -0.38600
N1766       N  0.95067160  0.47999887  0.05662995    -0.40200
N1767       N  0.82061011  0.51588787  0.99222303    -0.37900
N1768       N  0.92427471  0.48813915  0.98554869    -0.40300
N1769       N  0.01331052  0.59487264  0.00747045    -0.40100
N1770       N  0.11507802  0.56786049  0.99621805    -0.37700
N1771       N  0.00589444  0.36296656  0.03431890    -0.38800
N1772       N  0.88775081  0.36952529  0.03469372    -0.40400
C1773       C  0.38908054  0.47494555  0.01433793    -0.05400
C1774       C  0.42021966  0.47749692  0.00390693     0.08800
C1775       C  0.40594036  0.47300562  0.99009762    -0.02800
C1776       C  0.36262925  0.46865198  0.98662694    -0.01000
C1777       C  0.32938598  0.46304898  0.99700940    -0.04600
C1778       C  0.34361027  0.46670058  0.01096892     0.02400
C1779       C  0.47048169  0.49158642  0.00695110     0.09200
C1780       C  0.43640435  0.47298718  0.97929679     0.35100
C1781       C  0.31153133  0.46108496  0.02191858     0.38600
C1782       C  0.48336559  0.45975684  0.01232181    -0.05000
C1783       C  0.53109398  0.47429867  0.01483720     0.02200
C1784       C  0.56657835  0.51998945  0.01126857    -0.04600
C1785       C  0.55338888  0.55033327  0.00486972    -0.00800
C1786       C  0.50603773  0.53691595  0.00324671    -0.03400
C1787       C  0.44751659  0.41212297  0.01526280     0.35900
C1788       C  0.58878309  0.59656739  0.00025739     0.39500
C1789       C  0.54347480  0.44325429  0.02177164     0.38600
C1790       C  0.49371102  0.57040263  0.99794631     0.35500
C1791       C  0.40417300  0.48093398  0.02855602     0.36200
C1792       C  0.35379478  0.47111547  0.97208687     0.39500
N1793       N  0.55360843  0.41873270  0.02737612    -0.38600
N1794       N  0.41890132  0.37395967  0.01753098    -0.40200
N1795       N  0.61668733  0.63360403  0.99666440    -0.37900
N1796       N  0.48362378  0.59689966  0.99374583    -0.40300
N1797       N  0.46052878  0.47270912  0.97071212    -0.40100
N1798       N  0.34848745  0.47310856  0.96038166    -0.37700
N1799       N  0.28610067  0.45660458  0.03074448    -0.38800
N1800       N  0.41678803  0.48579824  0.03986251    -0.40400
loop_ 
_geom_bond_atom_site_label_1 
_geom_bond_atom_site_label_2 
_geom_bond_distance 
_geom_bond_site_symmetry_2 
_ccdc_geom_bond_type 
Zr1           O2   2.441   1_455  S
Zr1           O3   2.440   1_455  S
Zr1           O4   2.426   1_455  S
Zr1           O7   2.363       .  S
Zr1           O9   2.366       .  S
Zr1          O10   2.388       .  S
Zr1          O11   2.397       .  S
Zr1          O12   2.406       .  S
O2           H58   0.991       .  S
O2           H66   0.990       .  S
O3           C23   1.284   1_656  A
O4           C25   1.280       .  A
O5          Zr15   2.544   1_554  S
O5           C24   1.307       .  A
O6          Zr14   2.403       .  S
O6           C25   1.277   1_455  A
O7           C24   1.272   1_556  A
O8          Zr16   2.420   1_554  S
O8           C23   1.281       .  A
O9          Zr14   2.389       .  S
O9          Zr16   2.376       .  S
O10         Zr15   2.398       .  S
O10         Zr16   2.381       .  S
O10          H45   0.966   1_556  S
O11         Zr14   2.392       .  S
O11         Zr31   2.403       .  S
O11          H48   0.967       .  S
O12         Zr15   2.402       .  S
O12         Zr31   2.393       .  S
Zr13         O38   2.443       .  S
Zr13         O32   2.420       .  S
Zr13         O40   2.377       .  S
Zr13         O28   2.444       .  S
Zr13         O19   2.403       .  S
Zr13         O20   2.386       .  S
Zr13         O21   2.362       .  S
Zr13         O22   2.394       .  S
Zr14         O33   2.440       .  S
Zr14         O26   2.434       .  S
Zr14         O27   2.415       .  S
Zr14         O20   2.385       .  S
Zr14         O21   2.378       .  S
Zr15         O17   2.435       .  S
Zr15         O39   2.435   1_556  S
Zr15         O41   2.543       .  S
Zr15         O19   2.410       .  S
Zr15         O22   2.386       .  S
Zr16         O42   2.435   1_556  S
Zr16         O43   2.436       .  S
Zr16         O18   2.437       .  S
Zr16         O19   2.392       .  S
Zr16         O20   2.402       .  S
O17          H54   0.990   1_556  S
O18          H49   0.989       .  S
O18          H63   0.990       .  S
O20          H46   0.966       .  S
O21         Zr31   2.367       .  S
O22         Zr31   2.378       .  S
O22          H47   0.964       .  S
C23        C1637   1.516   1_455  S
C24        C1749   1.505       .  S
C25        C1700   1.465       .  S
O26          H62   0.990       .  S
O27          C29   1.281       .  A
O28          C29   1.286       .  A
C29        C1665   1.482       .  S
O30         Zr31   2.439       .  S
O30          H59   0.990       .  S
Zr31         O34   2.438       .  S
Zr31         O35   2.439       .  S
Zr31         O36   2.427       .  S
O32          C37   1.281       .  A
O33          H50   0.990       .  S
O33          H65   0.990       .  S
O34          H51   0.990       .  S
O35          H55   0.990       .  S
O35          H64   0.990       .  S
O36          C37   1.282       .  A
C37        C1721   1.469       .  S
O38          H57   0.990       .  S
O38          H61   0.989       .  S
O39          H53   0.990       .  S
O39          H60   0.990       .  S
O40          C44   1.274       .  A
O41          C44   1.307       .  A
O42          H52   0.990       .  S
O43          H56   0.990       .  S
C44        C1777   1.527       .  S
Zr67         O68   2.445   1_565  S
Zr67         O69   2.446   1_565  S
Zr67         O70   2.440   1_565  S
Zr67         O73   2.399       .  S
Zr67         O75   2.373       .  S
Zr67         O76   2.389       .  S
Zr67         O77   2.407       .  S
Zr67         O78   2.406       .  S
O68         H124   0.991       .  S
O68         H132   0.989       .  S
O69          C89   1.284       .  A
O70          C91   1.282       .  A
O71         Zr81   2.537       .  S
O71          C90   1.304       .  A
O72         Zr80   2.408   1_545  S
O72          C91   1.279       .  A
O73          C90   1.277       .  A
O74         Zr82   2.400       .  S
O74          C89   1.277   1_565  A
O75         Zr80   2.398       .  S
O75         Zr82   2.382       .  S
O76         Zr81   2.395       .  S
O76         Zr82   2.390       .  S
O76         H111   0.964       .  S
O77         Zr80   2.400       .  S
O77         Zr97   2.408       .  S
O77         H114   0.966       .  S
O78         Zr81   2.397       .  S
O78         Zr97   2.391       .  S
Zr79        O104   2.442       .  S
Zr79         O98   2.405       .  S
Zr79        O106   2.388       .  S
Zr79         O94   2.454       .  S
Zr79         O85   2.399       .  S
Zr79         O86   2.385       .  S
Zr79         O87   2.358       .  S
Zr79         O88   2.397       .  S
Zr80         O99   2.440       .  S
Zr80         O92   2.435       .  S
Zr80         O93   2.423       .  S
Zr80         O86   2.388       .  S
Zr80         O87   2.382       .  S
Zr81         O83   2.436       .  S
Zr81        O105   2.435       .  S
Zr81        O107   2.528       .  S
Zr81         O85   2.404       .  S
Zr81         O88   2.392       .  S
Zr82        O108   2.436       .  S
Zr82        O109   2.437       .  S
Zr82         O84   2.435       .  S
Zr82         O85   2.382       .  S
Zr82         O86   2.404       .  S
O83         H120   0.990       .  S
O84         H115   0.990       .  S
O84         H129   0.990       .  S
O86         H112   0.967       .  S
O87         Zr97   2.370       .  S
O88         Zr97   2.375       .  S
O88         H113   0.966       .  S
C89        C1525   1.473       .  S
C90        C1553   1.518       .  S
C91        C1693   1.479       .  S
O92         H128   0.990       .  S
O93          C95   1.281       .  A
O94          C95   1.288       .  A
C95        C1609   1.488       .  S
O96         Zr97   2.437       .  S
O96         H125   0.990       .  S
Zr97        O100   2.436       .  S
Zr97        O101   2.435       .  S
Zr97        O102   2.452       .  S
O98         C103   1.280       .  A
O99         H116   0.990       .  S
O99         H131   0.990       .  S
O100        H117   0.990       .  S
O101        H121   0.990       .  S
O101        H130   0.990       .  S
O102        C103   1.288       .  A
C103       C1728   1.490       .  S
O104        H123   0.990       .  S
O104        H127   0.990       .  S
O105        H119   0.989       .  S
O105        H126   0.990       .  S
O106        C110   1.279       .  A
O107        C110   1.304       .  A
O108        H118   0.990       .  S
O109        H122   0.990       .  S
C110       C1588   1.511       .  S
Zr133       O134   2.443       .  S
Zr133       O135   2.441       .  S
Zr133       O136   2.449       .  S
Zr133       O139   2.393       .  S
Zr133       O141   2.370       .  S
Zr133       O142   2.394       .  S
Zr133       O143   2.403       .  S
Zr133       O144   2.403       .  S
O134        H190   0.990       .  S
O134        H198   0.991       .  S
O135        C155   1.284       .  A
O136        C157   1.283       .  A
O137       Zr147   2.516       .  S
O137        C156   1.300       .  A
O138       Zr146   2.394       .  S
O138        C157   1.276       .  A
O139        C156   1.276       .  A
O140       Zr148   2.423       .  S
O140        C155   1.282       .  A
O141       Zr146   2.393       .  S
O141       Zr148   2.377       .  S
O142       Zr147   2.397       .  S
O142       Zr148   2.390       .  S
O142        H177   0.965       .  S
O143       Zr146   2.398       .  S
O143       Zr163   2.412       .  S
O143        H180   0.966       .  S
O144       Zr147   2.396       .  S
O144       Zr163   2.386       .  S
Zr145       O170   2.441       .  S
Zr145       O164   2.423       .  S
Zr145       O172   2.397       .  S
Zr145       O160   2.457       .  S
Zr145       O151   2.404       .  S
Zr145       O152   2.397       .  S
Zr145       O153   2.356       .  S
Zr145       O154   2.393       .  S
Zr146       O165   2.439       .  S
Zr146       O158   2.435       .  S
Zr146       O159   2.408       .  S
Zr146       O152   2.386       .  S
Zr146       O153   2.381       .  S
Zr147       O149   2.435       .  S
Zr147       O171   2.437       .  S
Zr147       O173   2.515       .  S
Zr147       O151   2.401       .  S
Zr147       O154   2.384       .  S
Zr148       O174   2.435       .  S
Zr148       O175   2.436       .  S
Zr148       O150   2.438       .  S
Zr148       O151   2.391       .  S
Zr148       O152   2.408       .  S
O149        H186   0.990       .  S
O150        H181   0.990       .  S
O150        H195   0.990       .  S
O152        H178   0.967       .  S
O153       Zr163   2.360       .  S
O154       Zr163   2.381       .  S
O154        H179   0.965       .  S
C155       C1357   1.493       .  S
C156       C1469   1.500       .  S
C157       C1413   1.469       .  S
O158        H194   0.990       .  S
O159        C161   1.279       .  A
O160        C161   1.289       .  A
C161       C1385   1.482       .  S
O162       Zr163   2.438       .  S
O162        H191   0.990       .  S
Zr163       O166   2.436       .  S
Zr163       O167   2.434       .  S
Zr163       O168   2.443       .  S
O164        C169   1.283       .  A
O165        H182   0.990       .  S
O165        H197   0.990       .  S
O166        H183   0.990       .  S
O167        H187   0.990       .  S
O167        H196   0.990       .  S
O168        C169   1.287       .  A
C169       C1441   1.484       .  S
O170        H189   0.990       .  S
O170        H193   0.990       .  S
O171        H185   0.990       .  S
O171        H192   0.990       .  S
O172        C176   1.279       .  A
O173        C176   1.302       .  A
O174        H184   0.990       .  S
O175        H188   0.990       .  S
C176       C1497   1.500       .  S
Zr199       O200   2.445   1_455  S
Zr199       O201   2.428       .  S
Zr199       O202   2.441   1_455  S
Zr199       O205   2.411       .  S
Zr199       O207   2.375       .  S
Zr199       O208   2.392       .  S
Zr199       O209   2.409       .  S
Zr199       O210   2.401       .  S
O200        H256   0.989       .  S
O200        H264   0.992       .  S
O201        C221   1.282       .  A
O202        C223   1.281       .  A
O203       Zr213   2.523       .  S
O203        C222   1.302       .  A
O204       Zr212   2.408       .  S
O204        C223   1.277   1_455  A
O205        C222   1.279       .  A
O206       Zr214   2.416       .  S
O206        C221   1.280       .  A
O207       Zr212   2.393       .  S
O207       Zr214   2.386       .  S
O208       Zr213   2.404       .  S
O208       Zr214   2.390       .  S
O208        H243   0.966       .  S
O209       Zr212   2.405       .  S
O209       Zr229   2.412       .  S
O209        H246   0.966       .  S
O210       Zr213   2.401       .  S
O210       Zr229   2.385       .  S
Zr211       O236   2.440       .  S
Zr211       O230   2.419       .  S
Zr211       O238   2.383       .  S
Zr211       O226   2.435       .  S
Zr211       O217   2.399       .  S
Zr211       O218   2.395       .  S
Zr211       O219   2.357       .  S
Zr211       O220   2.392       .  S
Zr212       O231   2.442       .  S
Zr212       O224   2.435       .  S
Zr212       O225   2.426       .  S
Zr212       O218   2.386       .  S
Zr212       O219   2.378       .  S
Zr213       O215   2.434       .  S
Zr213       O237   2.436       .  S
Zr213       O239   2.532       .  S
Zr213       O217   2.401       .  S
Zr213       O220   2.384       .  S
Zr214       O240   2.436       .  S
Zr214       O241   2.436       .  S
Zr214       O216   2.435       .  S
Zr214       O217   2.383       .  S
Zr214       O218   2.410       .  S
O215        H252   0.990       .  S
O216        H247   0.990       .  S
O216        H261   0.990       .  S
O218        H244   0.967       .  S
O219       Zr229   2.357       .  S
O220       Zr229   2.381       .  S
O220        H245   0.965       .  S
C221       C1245   1.486   1_455  S
C222       C1280   1.511       .  S
C223       C1420   1.479       .  S
O224        H260   0.990       .  S
O225        C227   1.283       .  A
O226        C227   1.285       .  A
C227       C1336   1.483       .  S
O228       Zr229   2.436       .  S
O228        H257   0.990       .  S
Zr229       O232   2.435       .  S
Zr229       O233   2.437       .  S
Zr229       O234   2.435       .  S
O230        C235   1.282       .  A
O231        H248   0.991       .  S
O231        H263   0.990       .  S
O232        H249   0.990       .  S
O233        H253   0.990       .  S
O233        H262   0.990       .  S
O234        C235   1.284       .  A
C235       C1448   1.473       .  S
O236        H255   0.990       .  S
O236        H259   0.989       .  S
O237        H251   0.990       .  S
O237        H258   0.990       .  S
O238        C242   1.277       .  A
O239        C242   1.305       .  A
O240        H250   0.990       .  S
O241        H254   0.990       .  S
C242       C1301   1.514       .  S
Zr265       O266   2.446   1_545  S
Zr265       O267   2.454   1_545  S
Zr265       O268   2.449   1_545  S
Zr265       O271   2.390       .  S
Zr265       O273   2.375       .  S
Zr265       O274   2.393       .  S
Zr265       O275   2.416       .  S
Zr265       O276   2.407       .  S
O266        H322   0.990       .  S
O266        H330   0.992       .  S
O267        C287   1.285       .  A
O268        C289   1.282       .  A
O269       Zr279   2.518       .  S
O269        C288   1.301       .  A
O270       Zr278   2.412   1_565  S
O270        C289   1.276       .  A
O271        C288   1.277       .  A
O272       Zr280   2.440       .  S
O272        C287   1.284   1_545  A
O273       Zr278   2.396       .  S
O273       Zr280   2.381       .  S
O274       Zr279   2.394       .  S
O274       Zr280   2.388       .  S
O274        H309   0.964       .  S
O275       Zr278   2.409       .  S
O275       Zr295   2.413       .  S
O275        H312   0.965       .  S
O276       Zr279   2.398       .  S
O276       Zr295   2.385       .  S
Zr277       O302   2.437       .  S
Zr277       O296   2.430       .  S
Zr277       O304   2.400       .  S
Zr277       O292   2.449       .  S
Zr277       O283   2.409       .  S
Zr277       O284   2.408       .  S
Zr277       O285   2.367       .  S
Zr277       O286   2.395       .  S
Zr278       O297   2.445       .  S
Zr278       O290   2.434       .  S
Zr278       O291   2.433       .  S
Zr278       O284   2.383       .  S
Zr278       O285   2.385       .  S
Zr279       O281   2.436       .  S
Zr279       O303   2.434       .  S
Zr279       O305   2.524       .  S
Zr279       O283   2.396       .  S
Zr279       O286   2.383       .  S
Zr280       O306   2.432       .  S
Zr280       O307   2.435       .  S
Zr280       O282   2.438       .  S
Zr280       O283   2.396       .  S
Zr280       O284   2.424       .  S
O281        H318   0.990       .  S
O282        H313   0.990       .  S
O282        H327   0.990       .  S
O284        H310   0.966       .  S
O285       Zr295   2.366       .  S
O286       Zr295   2.386       .  S
O286        H311   0.965       .  S
C287       C1392   1.490       .  S
C288       C1308   1.503       .  S
C289       C1196   1.474       .  S
O290        H326   0.990       .  S
O291        C293   1.284       .  A
O292        C293   1.286       .  A
C293       C1644   1.495       .  S
O294       Zr295   2.440       .  S
O294        H323   0.990       .  S
Zr295       O298   2.436       .  S
Zr295       O299   2.437       .  S
Zr295       O300   2.447       .  S
O296        C301   1.283       .  A
O297        H314   0.991       .  S
O297        H329   0.990       .  S
O298        H315   0.990       .  S
O299        H319   0.989       .  S
O299        H328   0.990       .  S
O300        C301   1.286       .  A
C301       C1224   1.482       .  S
O302        H321   0.990       .  S
O302        H325   0.991       .  S
O303        H317   0.990       .  S
O303        H324   0.990       .  S
O304        C308   1.279       .  A
O305        C308   1.303       .  A
O306        H316   0.989       .  S
O307        H320   0.990       .  S
C308       C1273   1.504       .  S
Zr331       O332   2.445       .  S
Zr331       O333   2.443       .  S
Zr331       O334   2.449       .  S
Zr331       O337   2.381       .  S
Zr331       O339   2.367       .  S
Zr331       O340   2.398       .  S
Zr331       O341   2.401       .  S
Zr331       O342   2.405       .  S
O332        H388   0.992       .  S
O332        H396   0.989       .  S
O333        C353   1.283       .  A
O334        C355   1.282       .  A
O335       Zr345   2.522       .  S
O335        C354   1.302       .  A
O336       Zr344   2.410       .  S
O336        C355   1.278       .  A
O337        C354   1.275       .  A
O338       Zr346   2.427       .  S
O338        C353   1.281       .  A
O339       Zr344   2.394       .  S
O339       Zr346   2.385       .  S
O340       Zr345   2.403       .  S
O340       Zr346   2.389       .  S
O340        H375   0.964       .  S
O341       Zr344   2.396       .  S
O341       Zr361   2.411       .  S
O341        H378   0.966       .  S
O342       Zr345   2.400       .  S
O342       Zr361   2.383       .  S
Zr343       O368   2.441       .  S
Zr343       O362   2.425       .  S
Zr343       O370   2.374       .  S
Zr343       O358   2.430       .  S
Zr343       O349   2.403       .  S
Zr343       O350   2.392       .  S
Zr343       O351   2.358       .  S
Zr343       O352   2.391       .  S
Zr344       O363   2.440       .  S
Zr344       O356   2.434       .  S
Zr344       O357   2.417       .  S
Zr344       O350   2.382       .  S
Zr344       O351   2.383       .  S
Zr345       O347   2.435       .  S
Zr345       O369   2.436   1_554  S
Zr345       O371   2.539       .  S
Zr345       O349   2.400       .  S
Zr345       O352   2.384       .  S
Zr346       O372   2.437       .  S
Zr346       O373   2.436       .  S
Zr346       O348   2.437       .  S
Zr346       O349   2.393       .  S
Zr346       O350   2.407       .  S
O347        H384   0.990       .  S
O348        H379   0.990       .  S
O348        H393   0.990       .  S
O350        H376   0.967       .  S
O351       Zr361   2.363       .  S
O352       Zr361   2.382       .  S
O352        H377   0.965       .  S
C353       C1616   1.480   1_554  S
C354       C1784   1.505       .  S
C355       C1189   1.479       .  S
O356        H392   0.990       .  S
O357        C359   1.281       .  A
O358        C359   1.284       .  A
C359       C1252   1.475       .  S
O360       Zr361   2.436       .  S
O360        H389   0.990       .  S
Zr361       O364   2.434       .  S
Zr361       O365   2.435       .  S
Zr361       O366   2.443       .  S
O362        C367   1.283       .  A
O363        H380   0.990       .  S
O363        H395   0.990       .  S
O364        H381   0.990       .  S
O365        H385   0.990       .  S
O365        H394   0.990       .  S
O366        C367   1.286       .  A
C367       C1217   1.484       .  S
O368        H387   0.990       .  S
O368        H391   0.989       .  S
O369        H383   0.990       .  S
O369        H390   0.990       .  S
O370        C374   1.275       .  A
O371        C374   1.306       .  A
O372        H382   0.990   1_554  S
O373        H386   0.990       .  S
C374       C1756   1.520       .  S
Zr397       O398   2.446       .  S
Zr397       O399   2.456       .  S
Zr397       O400   2.450       .  S
Zr397       O403   2.381       .  S
Zr397       O405   2.371       .  S
Zr397       O406   2.394       .  S
Zr397       O407   2.408       .  S
Zr397       O408   2.406       .  S
O398        H454   0.991       .  S
O398        H462   0.990       .  S
O399        C419   1.287       .  A
O400        C421   1.281       .  A
O401       Zr411   2.540       .  S
O401        C420   1.305       .  A
O402       Zr410   2.397       .  S
O402        C421   1.275       .  A
O403        C420   1.275       .  A
O404       Zr412   2.419       .  S
O404        C419   1.280       .  A
O405       Zr410   2.393       .  S
O405       Zr412   2.383       .  S
O406       Zr411   2.391       .  S
O406       Zr412   2.391       .  S
O406        H441   0.963       .  S
O407       Zr410   2.401       .  S
O407       Zr427   2.399       .  S
O407        H444   0.965       .  S
O408       Zr411   2.396       .  S
O408       Zr427   2.384       .  S
Zr409       O434   2.448       .  S
Zr409       O428   2.426       .  S
Zr409       O436   2.387       .  S
Zr409       O424   2.446       .  S
Zr409       O415   2.403       .  S
Zr409       O416   2.389       .  S
Zr409       O417   2.366       .  S
Zr409       O418   2.393       .  S
Zr410       O429   2.443       .  S
Zr410       O422   2.433       .  S
Zr410       O423   2.412       .  S
Zr410       O416   2.381       .  S
Zr410       O417   2.385       .  S
Zr411       O413   2.434       .  S
Zr411       O435   2.435       .  S
Zr411       O437   2.535       .  S
Zr411       O415   2.411       .  S
Zr411       O418   2.385       .  S
Zr412       O438   2.434       .  S
Zr412       O439   2.436       .  S
Zr412       O414   2.439       .  S
Zr412       O415   2.398       .  S
Zr412       O416   2.402       .  S
O413        H450   0.990       .  S
O414        H445   0.991       .  S
O414        H459   0.990       .  S
O416        H442   0.965       .  S
O417       Zr427   2.373       .  S
O418       Zr427   2.377       .  S
O418        H443   0.964       .  S
C419       C1672   1.480       .  S
C420       C1581   1.516       .  S
C421       C1133   1.470       .  S
O422        H458   0.990       .  S
O423        C425   1.280       .  A
O424        C425   1.286       .  A
C425       C1105   1.502       .  S
O426       Zr427   2.439       .  S
O426        H455   0.990       .  S
Zr427       O430   2.435       .  S
Zr427       O431   2.439       .  S
Zr427       O432   2.429       .  S
O428        C433   1.283       .  A
O429        H446   0.991       .  S
O429        H461   0.990       .  S
O430        H447   0.990       .  S
O431        H451   0.990       .  S
O431        H460   0.990       .  S
O432        C433   1.283       .  A
C433       C1168   1.471       .  S
O434        H453   0.990       .  S
O434        H457   0.990       .  S
O435        H449   0.989       .  S
O435        H456   0.990       .  S
O436        C440   1.276       .  A
O437        C440   1.305       .  A
O438        H448   0.990       .  S
O439        H452   0.990       .  S
C440       C1560   1.528       .  S
Zr463       O464   2.447   1_655  S
Zr463       O465   2.444   1_655  S
Zr463       O466   2.432   1_655  S
Zr463       O469   2.384       .  S
Zr463       O471   2.369       .  S
Zr463       O472   2.394       .  S
Zr463       O473   2.408       .  S
Zr463       O474   2.400       .  S
O464        H520   0.989       .  S
O464        H528   0.992       .  S
O465        C485   1.284       .  A
O466        C487   1.279       .  A
O467       Zr477   2.528       .  S
O467        C486   1.303       .  A
O468       Zr476   2.403   1_455  S
O468        C487   1.277       .  A
O469        C486   1.275       .  A
O470       Zr478   2.420       .  S
O470        C485   1.281   1_655  A
O471       Zr476   2.391       .  S
O471       Zr478   2.380       .  S
O472       Zr477   2.400       .  S
O472       Zr478   2.392       .  S
O472        H507   0.965       .  S
O473       Zr476   2.396       .  S
O473       Zr493   2.409       .  S
O473        H510   0.966       .  S
O474       Zr477   2.398       .  S
O474       Zr493   2.383       .  S
Zr475       O500   2.442       .  S
Zr475       O494   2.416       .  S
Zr475       O502   2.393       .  S
Zr475       O490   2.434       .  S
Zr475       O481   2.397       .  S
Zr475       O482   2.397       .  S
Zr475       O483   2.358       .  S
Zr475       O484   2.393       .  S
Zr476       O495   2.441       .  S
Zr476       O488   2.434       .  S
Zr476       O489   2.413       .  S
Zr476       O482   2.385       .  S
Zr476       O483   2.375       .  S
Zr477       O479   2.435       .  S
Zr477       O501   2.437       .  S
Zr477       O503   2.533       .  S
Zr477       O481   2.399       .  S
Zr477       O484   2.389       .  S
Zr478       O504   2.435       .  S
Zr478       O505   2.435       .  S
Zr478       O480   2.438       .  S
Zr478       O481   2.393       .  S
Zr478       O482   2.407       .  S
O479        H516   0.990       .  S
O480        H511   0.990       .  S
O480        H525   0.990       .  S
O482        H508   0.965       .  S
O483       Zr493   2.356       .  S
O484       Zr493   2.387       .  S
O484        H509   0.965       .  S
C485       C1021   1.485       .  S
C486       C1049   1.505       .  S
C487       C1140   1.470       .  S
O488        H524   0.990       .  S
O489        C491   1.280       .  A
O490        C491   1.284       .  A
C491       C1532   1.473       .  S
O492       Zr493   2.441       .  S
O492        H521   0.990       .  S
Zr493       O496   2.436       .  S
Zr493       O497   2.433       .  S
Zr493       O498   2.445       .  S
O494        C499   1.282       .  A
O495        H512   0.990       .  S
O495        H527   0.990   1_655  S
O496        H513   0.990       .  S
O497        H517   0.989       .  S
O497        H526   0.990       .  S
O498        C499   1.288       .  A
C499       C1161   1.490       .  S
O500        H519   0.990       .  S
O500        H523   0.990       .  S
O501        H515   0.990       .  S
O501        H522   0.990       .  S
O502        C506   1.279       .  A
O503        C506   1.305       .  A
O504        H514   0.990       .  S
O505        H518   0.990       .  S
C506       C1077   1.524       .  S
Zr529       O530   2.446   1_655  S
Zr529       O531   2.435   1_655  S
Zr529       O532   2.432   1_655  S
Zr529       O535   2.379       .  S
Zr529       O537   2.373       .  S
Zr529       O538   2.391       .  S
Zr529       O539   2.407       .  S
Zr529       O540   2.401       .  S
O530        H586   0.991       .  S
O530        H594   0.991       .  S
O531        C551   1.282       .  A
O532        C553   1.278       .  A
O533       Zr543   2.528       .  S
O533        C552   1.303       .  A
O534       Zr542   2.418   1_455  S
O534        C553   1.278       .  A
O535        C552   1.274       .  A
O536       Zr544   2.426       .  S
O536        C551   1.281   1_655  A
O537       Zr542   2.391       .  S
O537       Zr544   2.384       .  S
O538       Zr543   2.397       .  S
O538       Zr544   2.392       .  S
O538        H573   0.963       .  S
O539       Zr542   2.401       .  S
O539       Zr559   2.404       .  S
O539        H576   0.966       .  S
O540       Zr543   2.392       .  S
O540       Zr559   2.380       .  S
Zr541       O566   2.440       .  S
Zr541       O560   2.422       .  S
Zr541       O568   2.411       .  S
Zr541       O556   2.433       .  S
Zr541       O547   2.401       .  S
Zr541       O548   2.403       .  S
Zr541       O549   2.370       .  S
Zr541       O550   2.396       .  S
Zr542       O561   2.444       .  S
Zr542       O554   2.435       .  S
Zr542       O555   2.416       .  S
Zr542       O548   2.387       .  S
Zr542       O549   2.386       .  S
Zr543       O545   2.437       .  S
Zr543       O567   2.434       .  S
Zr543       O569   2.518       .  S
Zr543       O547   2.407       .  S
Zr543       O550   2.392       .  S
Zr544       O570   2.434       .  S
Zr544       O571   2.436       .  S
Zr544       O546   2.439       .  S
Zr544       O547   2.395       .  S
Zr544       O548   2.413       .  S
O545        H582   0.990       .  S
O546        H577   0.990       .  S
O546        H591   0.990       .  S
O548        H574   0.965       .  S
O549       Zr559   2.363       .  S
O550       Zr559   2.386       .  S
O550        H575   0.966       .  S
C551        C881   1.474       .  S
C552        C972   1.507       .  S
C553        C916   1.469       .  S
O554        H590   0.990       .  S
O555        C557   1.281       .  A
O556        C557   1.284       .  A
C557       C1364   1.481       .  S
O558       Zr559   2.436       .  S
O558        H587   0.990       .  S
Zr559       O562   2.434       .  S
Zr559       O563   2.432       .  S
Zr559       O564   2.441       .  S
O560        C565   1.282       .  A
O561        H578   0.990       .  S
O561        H593   0.991       .  S
O562        H579   0.990       .  S
O563        H583   0.989       .  S
O563        H592   0.990       .  S
O564        C565   1.286       .  A
C565        C944   1.484       .  S
O566        H585   0.990       .  S
O566        H589   0.990       .  S
O567        H581   0.990       .  S
O567        H588   0.990       .  S
O568        C572   1.280       .  A
O569        C572   1.301       .  A
O570        H580   0.990       .  S
O571        H584   0.990       .  S
C572        C993   1.507       .  S
Zr595       O596   2.445   1_545  S
Zr595       O597   2.436   1_545  S
Zr595       O598   2.438   1_545  S
Zr595       O601   2.403   1_545  S
Zr595       O603   2.374       .  S
Zr595       O604   2.390       .  S
Zr595       O605   2.406       .  S
Zr595       O606   2.403       .  S
O596        H652   0.991       .  S
O596        H660   0.991       .  S
O597        C617   1.283       .  A
O598        C619   1.281       .  A
O599       Zr609   2.516       .  S
O599        C618   1.300       .  A
O600       Zr608   2.408   1_565  S
O600        C619   1.278       .  A
O601        C618   1.278   1_565  A
O602       Zr610   2.418       .  S
O602        C617   1.281   1_545  A
O603       Zr608   2.398       .  S
O603       Zr610   2.375       .  S
O604       Zr609   2.397       .  S
O604       Zr610   2.390       .  S
O604        H639   0.965       .  S
O605       Zr608   2.400       .  S
O605       Zr625   2.403       .  S
O605        H642   0.966       .  S
O606       Zr609   2.398       .  S
O606       Zr625   2.388       .  S
Zr607       O632   2.447       .  S
Zr607       O626   2.429       .  S
Zr607       O634   2.402       .  S
Zr607       O622   2.448       .  S
Zr607       O613   2.402       .  S
Zr607       O614   2.394       .  S
Zr607       O615   2.362       .  S
Zr607       O616   2.393       .  S
Zr608       O627   2.441       .  S
Zr608       O620   2.436       .  S
Zr608       O621   2.426       .  S
Zr608       O614   2.387       .  S
Zr608       O615   2.381       .  S
Zr609       O611   2.435       .  S
Zr609       O633   2.437       .  S
Zr609       O635   2.506       .  S
Zr609       O613   2.400       .  S
Zr609       O616   2.393       .  S
Zr610       O636   2.434       .  S
Zr610       O637   2.435       .  S
Zr610       O612   2.437       .  S
Zr610       O613   2.387       .  S
Zr610       O614   2.406       .  S
O611        H648   0.990       .  S
O612        H643   0.990       .  S
O612        H657   0.990       .  S
O614        H640   0.965       .  S
O615       Zr625   2.365       .  S
O616       Zr625   2.383       .  S
O616        H641   0.965       .  S
C617       C1329   1.490       .  S
C618       C1504   1.503       .  S
C619        C909   1.471       .  S
O620        H656   0.990       .  S
O621        C623   1.283       .  A
O622        C623   1.286       .  A
C623        C853   1.520       .  S
O624       Zr625   2.436       .  S
O624        H653   0.990       .  S
Zr625       O628   2.436       .  S
Zr625       O629   2.438       .  S
Zr625       O630   2.419       .  S
O626        C631   1.283       .  A
O627        H644   0.991       .  S
O627        H659   0.990       .  S
O628        H645   0.990       .  S
O629        H649   0.990       .  S
O629        H658   0.990       .  S
O630        C631   1.281       .  A
C631        C937   1.470       .  S
O632        H651   0.990       .  S
O632        H655   0.989       .  S
O633        H647   0.990       .  S
O633        H654   0.990       .  S
O634        C638   1.280       .  A
O635        C638   1.299       .  A
O636        H646   0.990       .  S
O637        H650   0.990       .  S
C638       C1476   1.497       .  S
Zr661       O662   2.446   1_565  S
Zr661       O663   2.455   1_565  S
Zr661       O664   2.461   1_565  S
Zr661       O667   2.388       .  S
Zr661       O669   2.368       .  S
Zr661       O670   2.398       .  S
Zr661       O671   2.405       .  S
Zr661       O672   2.412       .  S
O662        H718   0.990       .  S
O662        H726   0.991       .  S
O663        C683   1.287   1_545  A
O664        C685   1.284       .  A
O665       Zr675   2.522       .  S
O665        C684   1.301       .  A
O666       Zr674   2.401   1_545  S
O666        C685   1.276       .  A
O667        C684   1.276       .  A
O668       Zr676   2.417       .  S
O668        C683   1.281       .  A
O669       Zr674   2.389       .  S
O669       Zr676   2.382       .  S
O670       Zr675   2.395       .  S
O670       Zr676   2.389       .  S
O670        H705   0.965       .  S
O671       Zr674   2.396       .  S
O671       Zr691   2.413       .  S
O671        H708   0.965       .  S
O672       Zr675   2.403       .  S
O672       Zr691   2.393       .  S
Zr673       O698   2.444       .  S
Zr673       O692   2.425       .  S
Zr673       O700   2.386       .  S
Zr673       O688   2.442       .  S
Zr673       O679   2.402       .  S
Zr673       O680   2.394       .  S
Zr673       O681   2.360       .  S
Zr673       O682   2.394       .  S
Zr674       O693   2.440       .  S
Zr674       O686   2.434       .  S
Zr674       O687   2.399       .  S
Zr674       O680   2.384       .  S
Zr674       O681   2.386       .  S
Zr675       O677   2.437       .  S
Zr675       O699   2.437       .  S
Zr675       O701   2.532       .  S
Zr675       O679   2.398       .  S
Zr675       O682   2.386       .  S
Zr676       O702   2.435       .  S
Zr676       O703   2.436       .  S
Zr676       O678   2.437       .  S
Zr676       O679   2.390       .  S
Zr676       O680   2.403       .  S
O677        H714   0.990       .  S
O678        H709   0.990       .  S
O678        H723   0.990       .  S
O680        H706   0.966       .  S
O681       Zr691   2.363       .  S
O682       Zr691   2.383       .  S
O682        H707   0.965       .  S
C683       C1112   1.487   1_565  S
C684       C1084   1.502       .  S
C685        C797   1.477       .  S
O686        H722   0.990       .  S
O687        C689   1.278       .  A
O688        C689   1.286       .  A
C689        C888   1.473       .  S
O690       Zr691   2.437       .  S
O690        H719   0.990       .  S
Zr691       O694   2.435       .  S
Zr691       O695   2.434       .  S
Zr691       O696   2.451       .  S
O692        C697   1.283       .  A
O693        H710   0.990       .  S
O693        H725   0.990       .  S
O694        H711   0.990       .  S
O695        H715   0.990       .  S
O695        H724   0.990       .  S
O696        C697   1.288       .  A
C697        C825   1.492       .  S
O698        H717   0.990       .  S
O698        H721   0.990       .  S
O699        H713   0.990       .  S
O699        H720   0.990       .  S
O700        C704   1.277       .  A
O701        C704   1.305       .  A
O702        H712   0.990       .  S
O703        H716   0.990       .  S
C704       C1056   1.519       .  S
Zr727       O728   2.445       .  S
Zr727       O729   2.457       .  S
Zr727       O730   2.455       .  S
Zr727       O733   2.410       .  S
Zr727       O735   2.376       .  S
Zr727       O736   2.396       .  S
Zr727       O737   2.417       .  S
Zr727       O738   2.408       .  S
O728        H784   0.990       .  S
O728        H792   0.991       .  S
O729        C749   1.287       .  A
O730        C751   1.284       .  A
O731       Zr741   2.515       .  S
O731        C750   1.300       .  A
O732       Zr740   2.407       .  S
O732        C751   1.277       .  A
O733        C750   1.279       .  A
O734       Zr742   2.415       .  S
O734        C749   1.280       .  A
O735       Zr740   2.399       .  S
O735       Zr742   2.382       .  S
O736       Zr741   2.400       .  S
O736       Zr742   2.393       .  S
O736        H771   0.965       .  S
O737       Zr740   2.401       .  S
O737       Zr757   2.403       .  S
O737        H774   0.965       .  S
O738       Zr741   2.400       .  S
O738       Zr757   2.389       .  S
Zr739       O764   2.446       .  S
Zr739       O758   2.433       .  S
Zr739       O766   2.386       .  S
Zr739       O754   2.432       .  S
Zr739       O745   2.400       .  S
Zr739       O746   2.393       .  S
Zr739       O747   2.363       .  S
Zr739       O748   2.385       .  S
Zr740       O759   2.442       .  S
Zr740       O752   2.435       .  S
Zr740       O753   2.432       .  S
Zr740       O746   2.385       .  S
Zr740       O747   2.383       .  S
Zr741       O743   2.434       .  S
Zr741       O765   2.436       .  S
Zr741       O767   2.532       .  S
Zr741       O745   2.402       .  S
Zr741       O748   2.381       .  S
Zr742       O768   2.435       .  S
Zr742       O769   2.436       .  S
Zr742       O744   2.438       .  S
Zr742       O745   2.391       .  S
Zr742       O746   2.405       .  S
O743        H780   0.990       .  S
O744        H775   0.990       .  S
O744        H789   0.990       .  S
O746        H772   0.965       .  S
O747       Zr757   2.363       .  S
O748       Zr757   2.380       .  S
O748        H773   0.963       .  S
C749        C860   1.490       .  S
C750       C1000   1.501       .  S
C751        C804   1.476       .  S
O752        H788   0.990       .  S
O753        C755   1.284       .  A
O754        C755   1.284       .  A
C755       C1028   1.508       .  S
O756       Zr757   2.437       .  S
O756        H785   0.990       .  S
Zr757       O760   2.435       .  S
Zr757       O761   2.434       .  S
Zr757       O762   2.428       .  S
O758        C763   1.284       .  A
O759        H776   0.990       .  S
O759        H791   0.991       .  S
O760        H777   0.990       .  S
O761        H781   0.990       .  S
O761        H790   0.990       .  S
O762        C763   1.282       .  A
C763        C832   1.474       .  S
O764        H783   0.990       .  S
O764        H787   0.990       .  S
O765        H779   0.990       .  S
O765        H786   0.990       .  S
O766        C770   1.277       .  A
O767        C770   1.304       .  A
O768        H778   0.990       .  S
O769        H782   0.990       .  S
C770        C965   1.520       .  S
C793        C794   1.408       .  A
C793        C798   1.411       .  A
C793        C811   1.450       .  S
C794        C799   1.494       .  S
C794        C795   1.412       .  A
C795        C796   1.410       .  A
C795        C800   1.451       .  S
C796        C797   1.410       .  A
C796        C812   1.451       .  S
C797        C798   1.413       .  A
C798        C801   1.450       .  S
C799        C802   1.413       .  A
C799        C806   1.409       .  A
C800        N817   1.157       .  T
C801        N819   1.157       .  T
C802        C803   1.408       .  A
C802        C807   1.451       .  S
C803        C804   1.409       .  A
C803        C809   1.451       .  S
C804        C805   1.413       .  A
C805        C806   1.411       .  A
C805        C808   1.450       .  S
C806        C810   1.449       .  S
C807        N814   1.157       .  T
C808        N815   1.157       .  T
C809        N813   1.157       .  T
C810        N816   1.157       .  T
C811        N820   1.157       .  T
C812        N818   1.157       .  T
C821        C822   1.408       .  A
C821        C826   1.409       .  A
C821        C839   1.452       .  S
C822        C827   1.494       .  S
C822        C823   1.410       .  A
C823        C824   1.410       .  A
C823        C828   1.453       .  S
C824        C825   1.419       .  A
C824        C840   1.450       .  S
C825        C826   1.419       .  A
C826        C829   1.450       .  S
C827        C830   1.415       .  A
C827        C834   1.409       .  A
C828        N845   1.157       .  T
C829        N847   1.157       .  T
C830        C831   1.412       .  A
C830        C835   1.450       .  S
C831        C832   1.409       .  A
C831        C837   1.450       .  S
C832        C833   1.413       .  A
C833        C834   1.405       .  A
C833        C836   1.451       .  S
C834        C838   1.452       .  S
C835        N842   1.157       .  T
C836        N843   1.157       .  T
C837        N841   1.157       .  T
C838        N844   1.157       .  T
C839        N848   1.157       .  T
C840        N846   1.157       .  T
C849        C850   1.406       .  A
C849        C854   1.415       .  A
C849        C867   1.453       .  S
C850        C855   1.502       .  S
C850        C851   1.407       .  A
C851        C852   1.414       .  A
C851        C856   1.453       .  S
C852        C853   1.429       .  A
C852        C868   1.451       .  S
C853        C854   1.431       .  A
C854        C857   1.452       .  S
C855        C858   1.413       .  A
C855        C862   1.410       .  A
C856        N873   1.157       .  T
C857        N875   1.158       .  T
C858        C859   1.414       .  A
C858        C863   1.450       .  S
C859        C860   1.413       .  A
C859        C865   1.450       .  S
C860        C861   1.417       .  A
C861        C862   1.410       .  A
C861        C864   1.452       .  S
C862        C866   1.452       .  S
C863        N870   1.157       .  T
C864        N871   1.157       .  T
C865        N869   1.157       .  T
C866        N872   1.157       .  T
C867        N876   1.157       .  T
C868        N874   1.158       .  T
C877        C878   1.411       .  A
C877        C882   1.412       .  A
C877        C895   1.450       .  S
C878        C883   1.487       .  S
C878        C879   1.406       .  A
C879        C880   1.403       .  A
C879        C884   1.453       .  S
C880        C881   1.413       .  A
C880        C896   1.450   1_455  S
C881        C882   1.410       .  A
C882        C885   1.449       .  S
C883        C886   1.411       .  A
C883        C890   1.409       .  A
C884        N901   1.157       .  T
C885        N903   1.157       .  T
C886        C887   1.407       .  A
C886        C891   1.451       .  S
C887        C888   1.412       .  A
C887        C893   1.451       .  S
C888        C889   1.412       .  A
C889        C890   1.406       .  A
C889        C892   1.451       .  S
C890        C894   1.451       .  S
C891        N898   1.157       .  T
C892        N899   1.157       .  T
C893        N897   1.157       .  T
C894        N900   1.157       .  T
C895        N904   1.157       .  T
C896        N902   1.157       .  T
C905        C906   1.409       .  A
C905        C910   1.409       .  A
C905        C923   1.450       .  S
C906        C911   1.487       .  S
C906        C907   1.413       .  A
C907        C908   1.405       .  A
C907        C912   1.452       .  S
C908        C909   1.407       .  A
C908        C924   1.451       .  S
C909        C910   1.412       .  A
C910        C913   1.451       .  S
C911        C914   1.413       .  A
C911        C918   1.409       .  A
C912        N929   1.157       .  T
C913        N931   1.157       .  T
C914        C915   1.407       .  A
C914        C919   1.451       .  S
C915        C916   1.407       .  A
C915        C921   1.449       .  S
C916        C917   1.410       .  A
C917        C918   1.407       .  A
C917        C920   1.451       .  S
C918        C922   1.450       .  S
C919        N926   1.157       .  T
C920        N927   1.157       .  T
C921        N925   1.157       .  T
C922        N928   1.157       .  T
C923        N932   1.157       .  T
C924        N930   1.157       .  T
C933        C934   1.414       .  A
C933        C938   1.411       .  A
C933        C951   1.450       .  S
C934        C939   1.491       .  S
C934        C935   1.410       .  A
C935        C936   1.405       .  A
C935        C940   1.451       .  S
C936        C937   1.410       .  A
C936        C952   1.452       .  S
C937        C938   1.408       .  A
C938        C941   1.451       .  S
C939        C942   1.408       .  A
C939        C946   1.410       .  A
C940        N957   1.157       .  T
C941        N959   1.157       .  T
C942        C943   1.408       .  A
C942        C947   1.451       .  S
C943        C944   1.415       .  A
C943        C949   1.450       .  S
C944        C945   1.415       .  A
C945        C946   1.411       .  A
C945        C948   1.451       .  S
C946        C950   1.451       .  S
C947        N954   1.157       .  T
C948        N955   1.157       .  T
C949        N953   1.157       .  T
C950        N956   1.157       .  T
C951        N960   1.157       .  T
C952        N958   1.157       .  T
C961        C962   1.420       .  A
C961        C966   1.430       .  A
C961        C979   1.449       .  S
C962        C967   1.525       .  S
C962        C963   1.410       .  A
C963        C964   1.413       .  A
C963        C968   1.453       .  S
C964        C965   1.426       .  A
C964        C980   1.451       .  S
C965        C966   1.419       .  A
C966        C969   1.448       .  S
C967        C970   1.421       .  A
C967        C974   1.414       .  A
C968        N985   1.157       .  T
C969        N987   1.157       .  T
C970        C971   1.428   1_455  A
C970        C975   1.448       .  S
C971        C972   1.415       .  A
C971        C977   1.448       .  S
C972        C973   1.421   1_655  A
C973        C974   1.413       .  A
C973        C976   1.452       .  S
C974        C978   1.453       .  S
C975        N982   1.157       .  T
C976        N983   1.157       .  T
C977        N981   1.157       .  T
C978        N984   1.157       .  T
C979        N988   1.157       .  T
C980        N986   1.156       .  T
C989        C990   1.420       .  A
C989        C994   1.426       .  A
C989       C1007   1.449       .  S
C990        C995   1.524       .  S
C990        C991   1.413       .  A
C991        C992   1.416       .  A
C991        C996   1.451       .  S
C992        C993   1.417       .  A
C992       C1008   1.448       .  S
C993        C994   1.414       .  A
C994        C997   1.448       .  S
C995        C998   1.415       .  A
C995       C1002   1.419       .  A
C996       N1013   1.157       .  T
C997       N1015   1.157       .  T
C998        C999   1.417       .  A
C998       C1003   1.451       .  S
C999       C1000   1.415       .  A
C999       C1005   1.446       .  S
C1000      C1001   1.414       .  A
C1001      C1002   1.424       .  A
C1001      C1004   1.449       .  S
C1002      C1006   1.449       .  S
C1003      N1010   1.157       .  T
C1004      N1011   1.157       .  T
C1005      N1009   1.156       .  T
C1006      N1012   1.157       .  T
C1007      N1016   1.157       .  T
C1008      N1014   1.156       .  T
C1017      C1018   1.409       .  A
C1017      C1022   1.409       .  A
C1017      C1035   1.451       .  S
C1018      C1023   1.497       .  S
C1018      C1019   1.412       .  A
C1019      C1020   1.413       .  A
C1019      C1024   1.450       .  S
C1020      C1021   1.414       .  A
C1020      C1036   1.451       .  S
C1021      C1022   1.416       .  A
C1022      C1025   1.452   1_455  S
C1023      C1026   1.407       .  A
C1023      C1030   1.407       .  A
C1024      N1041   1.157       .  T
C1025      N1043   1.157       .  T
C1026      C1027   1.411       .  A
C1026      C1031   1.453       .  S
C1027      C1028   1.426       .  A
C1027      C1033   1.452       .  S
C1028      C1029   1.425       .  A
C1029      C1030   1.413       .  A
C1029      C1032   1.451       .  S
C1030      C1034   1.452       .  S
C1031      N1038   1.157       .  T
C1032      N1039   1.158       .  T
C1033      N1037   1.157       .  T
C1034      N1040   1.157       .  T
C1035      N1044   1.157   1_455  T
C1036      N1042   1.157       .  T
C1045      C1046   1.422       .  A
C1045      C1050   1.428   1_455  A
C1045      C1063   1.448       .  S
C1046      C1051   1.526       .  S
C1046      C1047   1.415       .  A
C1047      C1048   1.412       .  A
C1047      C1052   1.452       .  S
C1048      C1049   1.420   1_455  A
C1048      C1064   1.454       .  S
C1049      C1050   1.415       .  A
C1050      C1053   1.448       .  S
C1051      C1054   1.421       .  A
C1051      C1058   1.412       .  A
C1052      N1069   1.157       .  T
C1053      N1071   1.157       .  T
C1054      C1055   1.429       .  A
C1054      C1059   1.448       .  S
C1055      C1056   1.418       .  A
C1055      C1061   1.448       .  S
C1056      C1057   1.424       .  A
C1057      C1058   1.413       .  A
C1057      C1060   1.451       .  S
C1058      C1062   1.453       .  S
C1059      N1066   1.157       .  T
C1060      N1067   1.156       .  T
C1061      N1065   1.157       .  T
C1062      N1068   1.157       .  T
C1063      N1072   1.157       .  T
C1064      N1070   1.158       .  T
C1073      C1074   1.412       .  A
C1073      C1078   1.416       .  A
C1073      C1091   1.453       .  S
C1074      C1079   1.528       .  S
C1074      C1075   1.420       .  A
C1075      C1076   1.429       .  A
C1075      C1080   1.449       .  S
C1076      C1077   1.420       .  A
C1076      C1092   1.448       .  S
C1077      C1078   1.428       .  A
C1078      C1081   1.452       .  S
C1079      C1082   1.416       .  A
C1079      C1086   1.422       .  A
C1080      N1097   1.157       .  T
C1081      N1099   1.157       .  T
C1082      C1083   1.414       .  A
C1082      C1087   1.452       .  S
C1083      C1084   1.418   1_545  A
C1083      C1089   1.453       .  S
C1084      C1085   1.413       .  A
C1085      C1086   1.427   1_565  A
C1085      C1088   1.449       .  S
C1086      C1090   1.448       .  S
C1087      N1094   1.157       .  T
C1088      N1095   1.157       .  T
C1089      N1093   1.157       .  T
C1090      N1096   1.157   1_545  T
C1091      N1100   1.157       .  T
C1092      N1098   1.157       .  T
C1101      C1102   1.410       .  A
C1101      C1106   1.414       .  A
C1101      C1119   1.451       .  S
C1102      C1107   1.497       .  S
C1102      C1103   1.407       .  A
C1103      C1104   1.410       .  A
C1103      C1108   1.452       .  S
C1104      C1105   1.424       .  A
C1104      C1120   1.452       .  S
C1105      C1106   1.420       .  A
C1106      C1109   1.451       .  S
C1107      C1110   1.408       .  A
C1107      C1114   1.412       .  A
C1108      N1125   1.157       .  T
C1109      N1127   1.157       .  T
C1110      C1111   1.409   1_545  A
C1110      C1115   1.452       .  S
C1111      C1112   1.418   1_565  A
C1111      C1117   1.451       .  S
C1112      C1113   1.412       .  A
C1113      C1114   1.414       .  A
C1113      C1116   1.450       .  S
C1114      C1118   1.449       .  S
C1115      N1122   1.157   1_545  T
C1116      N1123   1.157       .  T
C1117      N1121   1.157       .  T
C1118      N1124   1.157       .  T
C1119      N1128   1.157       .  T
C1120      N1126   1.158       .  T
C1129      C1130   1.407       .  A
C1129      C1134   1.405       .  A
C1129      C1147   1.451       .  S
C1130      C1135   1.485       .  S
C1130      C1131   1.414       .  A
C1131      C1132   1.408       .  A
C1131      C1136   1.451       .  S
C1132      C1133   1.407       .  A
C1132      C1148   1.450       .  S
C1133      C1134   1.413       .  A
C1134      C1137   1.451       .  S
C1135      C1138   1.411       .  A
C1135      C1142   1.408       .  A
C1136      N1153   1.157       .  T
C1137      N1155   1.157       .  T
C1138      C1139   1.403       .  A
C1138      C1143   1.452       .  S
C1139      C1140   1.409       .  A
C1139      C1145   1.452       .  S
C1140      C1141   1.413       .  A
C1141      C1142   1.409       .  A
C1141      C1144   1.451       .  S
C1142      C1146   1.450       .  S
C1143      N1150   1.157       .  T
C1144      N1151   1.157       .  T
C1145      N1149   1.157       .  T
C1146      N1152   1.157       .  T
C1147      N1156   1.157       .  T
C1148      N1154   1.157       .  T
C1157      C1158   1.407       .  A
C1157      C1162   1.407       .  A
C1157      C1175   1.453       .  S
C1158      C1163   1.490       .  S
C1158      C1159   1.408       .  A
C1159      C1160   1.410       .  A
C1159      C1164   1.452       .  S
C1160      C1161   1.421       .  A
C1160      C1176   1.452       .  S
C1161      C1162   1.418       .  A
C1162      C1165   1.449       .  S
C1163      C1166   1.413       .  A
C1163      C1170   1.410       .  A
C1164      N1181   1.157       .  T
C1165      N1183   1.156       .  T
C1166      C1167   1.408       .  A
C1166      C1171   1.451       .  S
C1167      C1168   1.408       .  A
C1167      C1173   1.450       .  S
C1168      C1169   1.412       .  A
C1169      C1170   1.406       .  A
C1169      C1172   1.452       .  S
C1170      C1174   1.451       .  S
C1171      N1178   1.157       .  T
C1172      N1179   1.157       .  T
C1173      N1177   1.157       .  T
C1174      N1180   1.157       .  T
C1175      N1184   1.157       .  T
C1176      N1182   1.157       .  T
C1185      C1186   1.408       .  A
C1185      C1190   1.411       .  A
C1185      C1203   1.450       .  S
C1186      C1191   1.493       .  S
C1186      C1187   1.412       .  A
C1187      C1188   1.408       .  A
C1187      C1192   1.451       .  S
C1188      C1189   1.411       .  A
C1188      C1204   1.450       .  S
C1189      C1190   1.414       .  A
C1190      C1193   1.451       .  S
C1191      C1194   1.413       .  A
C1191      C1198   1.410       .  A
C1192      N1209   1.157       .  T
C1193      N1211   1.157       .  T
C1194      C1195   1.407       .  A
C1194      C1199   1.452       .  S
C1195      C1196   1.408       .  A
C1195      C1201   1.450       .  S
C1196      C1197   1.412       .  A
C1197      C1198   1.412       .  A
C1197      C1200   1.450       .  S
C1198      C1202   1.449       .  S
C1199      N1206   1.157       .  T
C1200      N1207   1.157       .  T
C1201      N1205   1.157       .  T
C1202      N1208   1.157       .  T
C1203      N1212   1.157       .  T
C1204      N1210   1.157       .  T
C1213      C1214   1.410       .  A
C1213      C1218   1.412       .  A
C1213      C1231   1.450       .  S
C1214      C1219   1.494       .  S
C1214      C1215   1.408       .  A
C1215      C1216   1.409       .  A
C1215      C1220   1.451       .  S
C1216      C1217   1.416       .  A
C1216      C1232   1.451       .  S
C1217      C1218   1.415       .  A
C1218      C1221   1.451       .  S
C1219      C1222   1.409       .  A
C1219      C1226   1.411       .  A
C1220      N1237   1.157       .  T
C1221      N1239   1.157       .  T
C1222      C1223   1.409       .  A
C1222      C1227   1.451       .  S
C1223      C1224   1.415       .  A
C1223      C1229   1.451       .  S
C1224      C1225   1.413       .  A
C1225      C1226   1.412       .  A
C1225      C1228   1.450       .  S
C1226      C1230   1.451       .  S
C1227      N1234   1.157       .  T
C1228      N1235   1.157       .  T
C1229      N1233   1.157       .  T
C1230      N1236   1.157       .  T
C1231      N1240   1.157       .  T
C1232      N1238   1.157       .  T
C1241      C1242   1.408       .  A
C1241      C1246   1.406       .  A
C1241      C1259   1.452       .  S
C1242      C1247   1.489       .  S
C1242      C1243   1.409       .  A
C1243      C1244   1.410       .  A
C1243      C1248   1.451       .  S
C1244      C1245   1.416       .  A
C1244      C1260   1.450   1_655  S
C1245      C1246   1.419       .  A
C1246      C1249   1.453       .  S
C1247      C1250   1.408       .  A
C1247      C1254   1.411       .  A
C1248      N1265   1.157       .  T
C1249      N1267   1.157   1_655  T
C1250      C1251   1.407       .  A
C1250      C1255   1.451       .  S
C1251      C1252   1.414       .  A
C1251      C1257   1.451       .  S
C1252      C1253   1.410       .  A
C1253      C1254   1.408       .  A
C1253      C1256   1.450       .  S
C1254      C1258   1.451       .  S
C1255      N1262   1.157       .  T
C1256      N1263   1.157       .  T
C1257      N1261   1.157       .  T
C1258      N1264   1.157   1_655  T
C1259      N1268   1.157       .  T
C1260      N1266   1.157       .  T
C1269      C1270   1.414       .  A
C1269      C1274   1.420       .  A
C1269      C1287   1.450       .  S
C1270      C1275   1.522       .  S
C1270      C1271   1.417       .  A
C1271      C1272   1.424       .  A
C1271      C1276   1.449       .  S
C1272      C1273   1.414       .  A
C1272      C1288   1.449       .  S
C1273      C1274   1.417       .  A
C1274      C1277   1.449       .  S
C1275      C1278   1.419   1_655  A
C1275      C1282   1.409       .  A
C1276      N1293   1.157       .  T
C1277      N1295   1.157       .  T
C1278      C1279   1.428       .  A
C1278      C1283   1.448       .  S
C1279      C1280   1.416       .  A
C1279      C1285   1.448       .  S
C1280      C1281   1.420       .  A
C1281      C1282   1.415   1_455  A
C1281      C1284   1.448       .  S
C1282      C1286   1.451       .  S
C1283      N1290   1.157   1_455  T
C1284      N1291   1.156       .  T
C1285      N1289   1.157       .  T
C1286      N1292   1.157       .  T
C1287      N1296   1.157   1_655  T
C1288      N1294   1.157       .  T
C1297      C1298   1.420       .  A
C1297      C1302   1.428       .  A
C1297      C1315   1.449       .  S
C1298      C1303   1.523       .  S
C1298      C1299   1.411       .  A
C1299      C1300   1.413       .  A
C1299      C1304   1.453       .  S
C1300      C1301   1.424       .  A
C1300      C1316   1.452       .  S
C1301      C1302   1.417       .  A
C1302      C1305   1.448       .  S
C1303      C1306   1.420       .  A
C1303      C1310   1.414       .  A
C1304      N1321   1.157       .  T
C1305      N1323   1.157       .  T
C1306      C1307   1.426   1_565  A
C1306      C1311   1.448       .  S
C1307      C1308   1.414       .  A
C1307      C1313   1.448       .  S
C1308      C1309   1.419   1_545  A
C1309      C1310   1.412       .  A
C1309      C1312   1.453       .  S
C1310      C1314   1.453       .  S
C1311      N1318   1.157   1_565  T
C1312      N1319   1.157       .  T
C1313      N1317   1.157       .  T
C1314      N1320   1.157       .  T
C1315      N1324   1.157       .  T
C1316      N1322   1.157       .  T
C1325      C1326   1.409       .  A
C1325      C1330   1.410       .  A
C1325      C1343   1.452       .  S
C1326      C1331   1.492       .  S
C1326      C1327   1.409       .  A
C1327      C1328   1.408       .  A
C1327      C1332   1.451       .  S
C1328      C1329   1.416       .  A
C1328      C1344   1.450       .  S
C1329      C1330   1.420       .  A
C1330      C1333   1.450       .  S
C1331      C1334   1.407       .  A
C1331      C1338   1.411       .  A
C1332      N1349   1.157       .  T
C1333      N1351   1.157       .  T
C1334      C1335   1.407       .  A
C1334      C1339   1.452       .  S
C1335      C1336   1.418       .  A
C1335      C1341   1.450       .  S
C1336      C1337   1.413       .  A
C1337      C1338   1.410       .  A
C1337      C1340   1.450       .  S
C1338      C1342   1.451       .  S
C1339      N1346   1.157       .  T
C1340      N1347   1.157       .  T
C1341      N1345   1.157       .  T
C1342      N1348   1.157       .  T
C1343      N1352   1.157       .  T
C1344      N1350   1.157       .  T
C1353      C1354   1.409       .  A
C1353      C1358   1.410       .  A
C1353      C1371   1.451       .  S
C1354      C1359   1.492       .  S
C1354      C1355   1.408       .  A
C1355      C1356   1.410       .  A
C1355      C1360   1.452       .  S
C1356      C1357   1.421       .  A
C1356      C1372   1.450       .  S
C1357      C1358   1.417       .  A
C1358      C1361   1.450       .  S
C1359      C1362   1.411       .  A
C1359      C1366   1.408       .  A
C1360      N1377   1.157       .  T
C1361      N1379   1.157       .  T
C1362      C1363   1.410       .  A
C1362      C1367   1.450       .  S
C1363      C1364   1.412       .  A
C1363      C1369   1.450       .  S
C1364      C1365   1.416       .  A
C1365      C1366   1.407       .  A
C1365      C1368   1.452       .  S
C1366      C1370   1.451       .  S
C1367      N1374   1.157       .  T
C1368      N1375   1.157       .  T
C1369      N1373   1.157       .  T
C1370      N1376   1.157       .  T
C1371      N1380   1.157       .  T
C1372      N1378   1.157       .  T
C1381      C1382   1.414       .  A
C1381      C1386   1.413       .  A
C1381      C1399   1.450       .  S
C1382      C1387   1.505       .  S
C1382      C1383   1.415       .  A
C1383      C1384   1.412       .  A
C1383      C1388   1.450       .  S
C1384      C1385   1.411       .  A
C1384      C1400   1.451       .  S
C1385      C1386   1.413       .  A
C1386      C1389   1.451       .  S
C1387      C1390   1.411       .  A
C1387      C1394   1.416       .  A
C1388      N1405   1.157       .  T
C1389      N1407   1.157       .  T
C1390      C1391   1.411       .  A
C1390      C1395   1.452       .  S
C1391      C1392   1.415       .  A
C1391      C1397   1.450   1_565  S
C1392      C1393   1.412       .  A
C1393      C1394   1.418       .  A
C1393      C1396   1.449       .  S
C1394      C1398   1.450       .  S
C1395      N1402   1.157       .  T
C1396      N1403   1.157       .  T
C1397      N1401   1.157       .  T
C1398      N1404   1.157       .  T
C1399      N1408   1.157       .  T
C1400      N1406   1.157       .  T
C1409      C1410   1.412       .  A
C1409      C1414   1.407       .  A
C1409      C1427   1.451       .  S
C1410      C1415   1.488       .  S
C1410      C1411   1.409       .  A
C1411      C1412   1.408       .  A
C1411      C1416   1.450       .  S
C1412      C1413   1.412       .  A
C1412      C1428   1.451       .  S
C1413      C1414   1.409       .  A
C1414      C1417   1.451       .  S
C1415      C1418   1.408       .  A
C1415      C1422   1.410       .  A
C1416      N1433   1.157       .  T
C1417      N1435   1.157       .  T
C1418      C1419   1.410       .  A
C1418      C1423   1.450       .  S
C1419      C1420   1.415       .  A
C1419      C1425   1.451       .  S
C1420      C1421   1.414       .  A
C1421      C1422   1.406       .  A
C1421      C1424   1.452       .  S
C1422      C1426   1.452       .  S
C1423      N1430   1.157       .  T
C1424      N1431   1.157       .  T
C1425      N1429   1.157       .  T
C1426      N1432   1.157       .  T
C1427      N1436   1.157       .  T
C1428      N1434   1.157       .  T
C1437      C1438   1.408       .  A
C1437      C1442   1.407       .  A
C1437      C1455   1.452       .  S
C1438      C1443   1.489       .  S
C1438      C1439   1.409       .  A
C1439      C1440   1.409       .  A
C1439      C1444   1.451       .  S
C1440      C1441   1.416       .  A
C1440      C1456   1.450       .  S
C1441      C1442   1.417       .  A
C1442      C1445   1.451       .  S
C1443      C1446   1.411       .  A
C1443      C1450   1.410       .  A
C1444      N1461   1.157       .  T
C1445      N1463   1.157       .  T
C1446      C1447   1.408       .  A
C1446      C1451   1.450       .  S
C1447      C1448   1.410       .  A
C1447      C1453   1.450       .  S
C1448      C1449   1.413       .  A
C1449      C1450   1.406       .  A
C1449      C1452   1.452       .  S
C1450      C1454   1.452       .  S
C1451      N1458   1.157       .  T
C1452      N1459   1.157       .  T
C1453      N1457   1.157       .  T
C1454      N1460   1.157       .  T
C1455      N1464   1.157       .  T
C1456      N1462   1.157       .  T
C1465      C1466   1.412       .  A
C1465      C1470   1.414       .  A
C1465      C1483   1.452       .  S
C1466      C1471   1.517       .  S
C1466      C1467   1.418       .  A
C1467      C1468   1.423       .  A
C1467      C1472   1.449       .  S
C1468      C1469   1.413       .  A
C1468      C1484   1.449       .  S
C1469      C1470   1.418       .  A
C1470      C1473   1.449       .  S
C1471      C1474   1.419       .  A
C1471      C1478   1.413       .  A
C1472      N1489   1.157       .  T
C1473      N1491   1.156       .  T
C1474      C1475   1.423       .  A
C1474      C1479   1.449       .  S
C1475      C1476   1.412       .  A
C1475      C1481   1.448       .  S
C1476      C1477   1.415       .  A
C1477      C1478   1.414       .  A
C1477      C1480   1.449       .  S
C1478      C1482   1.451       .  S
C1479      N1486   1.157       .  T
C1480      N1487   1.156       .  T
C1481      N1485   1.157       .  T
C1482      N1488   1.157       .  T
C1483      N1492   1.157       .  T
C1484      N1490   1.157       .  T
C1493      C1494   1.414       .  A
C1493      C1498   1.416       .  A
C1493      C1511   1.451       .  S
C1494      C1499   1.520       .  S
C1494      C1495   1.418       .  A
C1495      C1496   1.422       .  A
C1495      C1500   1.449       .  S
C1496      C1497   1.413       .  A
C1496      C1512   1.449       .  S
C1497      C1498   1.417       .  A
C1498      C1501   1.451       .  S
C1499      C1502   1.418       .  A
C1499      C1506   1.412       .  A
C1500      N1517   1.157       .  T
C1501      N1519   1.157       .  T
C1502      C1503   1.424       .  A
C1502      C1507   1.449       .  S
C1503      C1504   1.415   1_565  A
C1503      C1509   1.449   1_565  S
C1504      C1505   1.418   1_545  A
C1505      C1506   1.416       .  A
C1505      C1508   1.449   1_565  S
C1506      C1510   1.451       .  S
C1507      N1514   1.157       .  T
C1508      N1515   1.156       .  T
C1509      N1513   1.157       .  T
C1510      N1516   1.157       .  T
C1511      N1520   1.157       .  T
C1512      N1518   1.157       .  T
C1521      C1522   1.411       .  A
C1521      C1526   1.405       .  A
C1521      C1539   1.452       .  S
C1522      C1527   1.494       .  S
C1522      C1523   1.415       .  A
C1523      C1524   1.411       .  A
C1523      C1528   1.450       .  S
C1524      C1525   1.408       .  A
C1524      C1540   1.450       .  S
C1525      C1526   1.412       .  A
C1526      C1529   1.452   1_545  S
C1527      C1530   1.413       .  A
C1527      C1534   1.414       .  A
C1528      N1545   1.157       .  T
C1529      N1547   1.157       .  T
C1530      C1531   1.409       .  A
C1530      C1535   1.451       .  S
C1531      C1532   1.412       .  A
C1531      C1537   1.451       .  S
C1532      C1533   1.409       .  A
C1533      C1534   1.406       .  A
C1533      C1536   1.452       .  S
C1534      C1538   1.451       .  S
C1535      N1542   1.157       .  T
C1536      N1543   1.157       .  T
C1537      N1541   1.157       .  T
C1538      N1544   1.157       .  T
C1539      N1548   1.157       .  T
C1540      N1546   1.157       .  T
C1549      C1550   1.415       .  A
C1549      C1554   1.417       .  A
C1549      C1567   1.452       .  S
C1550      C1555   1.534       .  S
C1550      C1551   1.422       .  A
C1551      C1552   1.432   1_545  A
C1551      C1556   1.448       .  S
C1552      C1553   1.417       .  A
C1552      C1568   1.447       .  S
C1553      C1554   1.422   1_565  A
C1554      C1557   1.452       .  S
C1555      C1558   1.413       .  A
C1555      C1562   1.422       .  A
C1556      N1573   1.157       .  T
C1557      N1575   1.157       .  T
C1558      C1559   1.417       .  A
C1558      C1563   1.453       .  S
C1559      C1560   1.431       .  A
C1559      C1565   1.454       .  S
C1560      C1561   1.419       .  A
C1561      C1562   1.431       .  A
C1561      C1564   1.448       .  S
C1562      C1566   1.448       .  S
C1563      N1570   1.157       .  T
C1564      N1571   1.157       .  T
C1565      N1569   1.157       .  T
C1566      N1572   1.157       .  T
C1567      N1576   1.157       .  T
C1568      N1574   1.157       .  T
C1577      C1578   1.408       .  A
C1577      C1582   1.411       .  A
C1577      C1595   1.453       .  S
C1578      C1583   1.523       .  S
C1578      C1579   1.420       .  A
C1579      C1580   1.431       .  A
C1579      C1584   1.448       .  S
C1580      C1581   1.417       .  A
C1580      C1596   1.448       .  S
C1581      C1582   1.426       .  A
C1582      C1585   1.452       .  S
C1583      C1586   1.413       .  A
C1583      C1590   1.419       .  A
C1584      N1601   1.157       .  T
C1585      N1603   1.157       .  T
C1586      C1587   1.413       .  A
C1586      C1591   1.452       .  S
C1587      C1588   1.421       .  A
C1587      C1593   1.452       .  S
C1588      C1589   1.417       .  A
C1589      C1590   1.428       .  A
C1589      C1592   1.448       .  S
C1590      C1594   1.448       .  S
C1591      N1598   1.157       .  T
C1592      N1599   1.157       .  T
C1593      N1597   1.157       .  T
C1594      N1600   1.157       .  T
C1595      N1604   1.157       .  T
C1596      N1602   1.157       .  T
C1605      C1606   1.412       .  A
C1605      C1610   1.415       .  A
C1605      C1623   1.451       .  S
C1606      C1611   1.499       .  S
C1606      C1607   1.410       .  A
C1607      C1608   1.410       .  A
C1607      C1612   1.450       .  S
C1608      C1609   1.413       .  A
C1608      C1624   1.451       .  S
C1609      C1610   1.414       .  A
C1610      C1613   1.450       .  S
C1611      C1614   1.414       .  A
C1611      C1618   1.411       .  A
C1612      N1629   1.157       .  T
C1613      N1631   1.157       .  T
C1614      C1615   1.413       .  A
C1614      C1619   1.450       .  S
C1615      C1616   1.410       .  A
C1615      C1621   1.450   1_556  S
C1616      C1617   1.412       .  A
C1617      C1618   1.410       .  A
C1617      C1620   1.451       .  S
C1618      C1622   1.450       .  S
C1619      N1626   1.157       .  T
C1620      N1627   1.157       .  T
C1621      N1625   1.157       .  T
C1622      N1628   1.157       .  T
C1623      N1632   1.157       .  T
C1624      N1630   1.157       .  T
C1633      C1634   1.408       .  A
C1633      C1638   1.416       .  A
C1633      C1651   1.451       .  S
C1634      C1639   1.499       .  S
C1634      C1635   1.405       .  A
C1635      C1636   1.409       .  A
C1635      C1640   1.453       .  S
C1636      C1637   1.429       .  A
C1636      C1652   1.452   1_655  S
C1637      C1638   1.429       .  A
C1638      C1641   1.452       .  S
C1639      C1642   1.407       .  A
C1639      C1646   1.412       .  A
C1640      N1657   1.157       .  T
C1641      N1659   1.158       .  T
C1642      C1643   1.410       .  A
C1642      C1647   1.451       .  S
C1643      C1644   1.420       .  A
C1643      C1649   1.451       .  S
C1644      C1645   1.416       .  A
C1645      C1646   1.415       .  A
C1645      C1648   1.449       .  S
C1646      C1650   1.452       .  S
C1647      N1654   1.157       .  T
C1648      N1655   1.157       .  T
C1649      N1653   1.157       .  T
C1650      N1656   1.157   1_655  T
C1651      N1660   1.157       .  T
C1652      N1658   1.157       .  T
C1661      C1662   1.414       .  A
C1661      C1666   1.412       .  A
C1661      C1679   1.451       .  S
C1662      C1667   1.497       .  S
C1662      C1663   1.410       .  A
C1663      C1664   1.408       .  A
C1663      C1668   1.451       .  S
C1664      C1665   1.415       .  A
C1664      C1680   1.451       .  S
C1665      C1666   1.411       .  A
C1666      C1669   1.450       .  S
C1667      C1670   1.415       .  A
C1667      C1674   1.409       .  A
C1668      N1685   1.157       .  T
C1669      N1687   1.157       .  T
C1670      C1671   1.413       .  A
C1670      C1675   1.450       .  S
C1671      C1672   1.410       .  A
C1671      C1677   1.450       .  S
C1672      C1673   1.414       .  A
C1673      C1674   1.406       .  A
C1673      C1676   1.451       .  S
C1674      C1678   1.452       .  S
C1675      N1682   1.157       .  T
C1676      N1683   1.157       .  T
C1677      N1681   1.157       .  T
C1678      N1684   1.157       .  T
C1679      N1688   1.157       .  T
C1680      N1686   1.157       .  T
C1689      C1690   1.411       .  A
C1689      C1694   1.405       .  A
C1689      C1707   1.453       .  S
C1690      C1695   1.484       .  S
C1690      C1691   1.405       .  A
C1691      C1692   1.409       .  A
C1691      C1696   1.450       .  S
C1692      C1693   1.417       .  A
C1692      C1708   1.450       .  S
C1693      C1694   1.413       .  A
C1694      C1697   1.452       .  S
C1695      C1698   1.406       .  A
C1695      C1702   1.411       .  A
C1696      N1713   1.157       .  T
C1697      N1715   1.157       .  T
C1698      C1699   1.404       .  A
C1698      C1703   1.450       .  S
C1699      C1700   1.412       .  A
C1699      C1705   1.452       .  S
C1700      C1701   1.408       .  A
C1701      C1702   1.407       .  A
C1701      C1704   1.451       .  S
C1702      C1706   1.450       .  S
C1703      N1710   1.157       .  T
C1704      N1711   1.157       .  T
C1705      N1709   1.157       .  T
C1706      N1712   1.157       .  T
C1707      N1716   1.157       .  T
C1708      N1714   1.157       .  T
C1717      C1718   1.412       .  A
C1717      C1722   1.407       .  A
C1717      C1735   1.450       .  S
C1718      C1723   1.488       .  S
C1718      C1719   1.410       .  A
C1719      C1720   1.406       .  A
C1719      C1724   1.451       .  S
C1720      C1721   1.412       .  A
C1720      C1736   1.452       .  S
C1721      C1722   1.407       .  A
C1722      C1725   1.450       .  S
C1723      C1726   1.408       .  A
C1723      C1730   1.406       .  A
C1724      N1741   1.157       .  T
C1725      N1743   1.157       .  T
C1726      C1727   1.408       .  A
C1726      C1731   1.452       .  S
C1727      C1728   1.418       .  A
C1727      C1733   1.449       .  S
C1728      C1729   1.421       .  A
C1729      C1730   1.408       .  A
C1729      C1732   1.452       .  S
C1730      C1734   1.452       .  S
C1731      N1738   1.157       .  T
C1732      N1739   1.157       .  T
C1733      N1737   1.157       .  T
C1734      N1740   1.157       .  T
C1735      N1744   1.157       .  T
C1736      N1742   1.157       .  T
C1745      C1746   1.419       .  A
C1745      C1750   1.417   1_655  A
C1745      C1763   1.450       .  S
C1746      C1751   1.533       .  S
C1746      C1747   1.422   1_655  A
C1747      C1748   1.428       .  A
C1747      C1752   1.449       .  S
C1748      C1749   1.415       .  A
C1748      C1764   1.448       .  S
C1749      C1750   1.416       .  A
C1750      C1753   1.450       .  S
C1751      C1754   1.414       .  A
C1751      C1758   1.424       .  A
C1752      N1769   1.157       .  T
C1753      N1771   1.157       .  T
C1754      C1755   1.415       .  A
C1754      C1759   1.452       .  S
C1755      C1756   1.425       .  A
C1755      C1761   1.452       .  S
C1756      C1757   1.416       .  A
C1757      C1758   1.430       .  A
C1757      C1760   1.448       .  S
C1758      C1762   1.448   1_554  S
C1759      N1766   1.157       .  T
C1760      N1767   1.157   1_554  T
C1761      N1765   1.157       .  T
C1762      N1768   1.157       .  T
C1763      N1772   1.157       .  T
C1764      N1770   1.157   1_554  T
C1773      C1774   1.417       .  A
C1773      C1778   1.430       .  A
C1773      C1791   1.448       .  S
C1774      C1779   1.519       .  S
C1774      C1775   1.405   1_554  A
C1775      C1776   1.411       .  A
C1775      C1780   1.455       .  S
C1776      C1777   1.434       .  A
C1776      C1792   1.452       .  S
C1777      C1778   1.420   1_556  A
C1778      C1781   1.447       .  S
C1779      C1782   1.419       .  A
C1779      C1786   1.411       .  A
C1780      N1797   1.157       .  T
C1781      N1799   1.157       .  T
C1782      C1783   1.427       .  A
C1782      C1787   1.448       .  S
C1783      C1784   1.415       .  A
C1783      C1789   1.448       .  S
C1784      C1785   1.423       .  A
C1785      C1786   1.411       .  A
C1785      C1788   1.454       .  S
C1786      C1790   1.453   1_554  S
C1787      N1794   1.157       .  T
C1788      N1795   1.157   1_554  T
C1789      N1793   1.157       .  T
C1790      N1796   1.157       .  T
C1791      N1800   1.157       .  T
C1792      N1798   1.157       .  T
