geometry optimzed in LAMMPS
_audit_creation_date              2020-12-01 
_audit_creation_method            'lammps2cif' 
_symmetry_space_group_name_H-M    'P1' 
_symmetry_Int_Tables_number       1 
_symmetry_cell_setting            triclinic 
loop_ 
_symmetry_equiv_pos_as_xyz 
  x,y,z 
_cell_length_a                    37.56420407 
_cell_length_b                    37.74349743802571 
_cell_length_c                    51.2010977291053 
_cell_angle_alpha                 90.13178923154463 
_cell_angle_beta                  89.39727488069012 
_cell_angle_gamma                 89.97281620213559 
loop_ 
_atom_site_label 
_atom_site_type_symbol 
_atom_site_fract_x 
_atom_site_fract_y 
_atom_site_fract_z 
_atom_site_charge 
O1          O  0.06717675  0.61393651  0.65492338    -0.80600
O2          O  0.07285319  0.72535246  0.56811825    -0.65200
O3          O  0.06769508  0.67994813  0.63346388    -1.11800
C4          C  0.94930528  0.64680918  0.61196508     1.06300
O5          O  0.01547679  0.73266025  0.55877445    -0.78500
O6          O  0.97818061  0.73057332  0.60354492    -0.66000
Ni7        Ni  0.10290423  0.64626385  0.64268294     1.34900
C8          C  0.98461037  0.73206956  0.62781841     0.85100
O9          O  0.11581957  0.72265152  0.60901356    -0.79000
O10         O  0.14065104  0.67728897  0.63108966    -0.89300
C11         C  0.04810283  0.74082445  0.55605734     0.84600
O12         O  0.10529142  0.62037748  0.61067101    -0.67500
O13         O  0.95235776  0.66577621  0.59159935    -0.86800
C14         C  0.10752554  0.63308268  0.58787722     0.85500
C15         C  0.14251261  0.70727406  0.61953610     1.07000
H16         H  0.03181568  0.65454569  0.58450148     0.38800
O17         O  0.02650371  0.67584228  0.59429920    -1.09400
O18         O  0.00094300  0.70775436  0.64062164    -0.66100
Ni19       Ni  0.02106519  0.66161213  0.63037578     1.26300
O20         O  0.09687120  0.66411132  0.58246448    -0.66300
O21         O  0.97444319  0.64173886  0.62778924    -0.78600
C22         C  0.04450065  0.62332818  0.67211247     0.84900
O23         O  0.02134318  0.64665844  0.66635339    -0.65800
Ni24       Ni  0.98714412  0.69740493  0.57663080     1.27400
Ni25       Ni  0.07099641  0.70102899  0.60047259     1.26100
H26         H  0.06771777  0.69844188  0.64655014     0.39400
O27         O  0.11956303  0.57955348  0.85796001    -0.80600
O28         O  0.22081235  0.58305986  0.95005867    -0.65200
O29         O  0.18391878  0.57873941  0.88217234    -1.11800
C30         C  0.14040395  0.46542869  0.90879664     1.06300
O31         O  0.23476139  0.52613239  0.95422554    -0.78500
O32         O  0.22060647  0.48081796  0.91455834    -0.66000
Ni33       Ni  0.15262753  0.61455830  0.87044333     1.34900
C34         C  0.22861365  0.48913326  0.89119643     0.85100
O35         O  0.22568465  0.62568640  0.90835810    -0.79000
O36         O  0.18488840  0.65117616  0.88210396    -0.89300
C37         C  0.23998134  0.55880197  0.95946113     0.84600
O38         O  0.12372218  0.62169689  0.90115380    -0.67500
O39         O  0.15254745  0.47236989  0.93144765    -0.86800
C40         C  0.13496197  0.62426254  0.92432425     0.85500
C41         C  0.21315814  0.65228705  0.89592446     1.07000
H42         H  0.15251765  0.54575769  0.93001328     0.38800
O43         O  0.17482044  0.53941470  0.92168190    -1.09400
O44         O  0.21124758  0.51196002  0.87782835    -0.66100
Ni45       Ni  0.16447409  0.53250058  0.88550135     1.26300
O46         O  0.16392937  0.61014993  0.93140547    -0.66300
O47         O  0.14534034  0.48536586  0.88904346    -0.78600
C48         C  0.12870337  0.55484383  0.84226346     0.84900
O49         O  0.15185885  0.53195395  0.84916331    -0.65800
Ni50       Ni  0.19261406  0.50112311  0.94172397     1.27400
Ni51       Ni  0.20147124  0.58219020  0.91618301     1.26100
H52         H  0.20392505  0.57795596  0.87016265     0.39400
O53         O  0.44301919  0.92449614  0.65602218    -0.80600
O54         O  0.44153923  0.81305340  0.56777301    -0.65200
O55         O  0.44390870  0.85832625  0.63296131    -1.11800
C56         C  0.56407983  0.88409289  0.61610752     1.06300
O57         O  0.49659337  0.81560774  0.55122018    -0.78500
O58         O  0.51947644  0.80166543  0.60011920    -0.66000
Ni59       Ni  0.40839925  0.89228276  0.64153333     1.34900
C60         C  0.51630003  0.80052892  0.62485809     0.85100
O61         O  0.39779061  0.81494803  0.60831428    -0.79000
O62         O  0.37142546  0.86140189  0.62853634    -0.89300
C63         C  0.46447293  0.80486560  0.55060355     0.84600
O64         O  0.40862460  0.91845478  0.60934304    -0.67500
O65         O  0.56246056  0.85959330  0.59910263    -0.86800
C66         C  0.40561726  0.90479200  0.58681432     0.85500
C67         C  0.37035090  0.83080606  0.61767807     1.07000
H68         H  0.48169055  0.88455160  0.58387201     0.38800
O69         O  0.48642863  0.86325287  0.59367665    -1.09400
O70         O  0.50948223  0.82816398  0.63925856    -0.66100
Ni71       Ni  0.49046322  0.87612664  0.63008655     1.26300
O72         O  0.41602273  0.87347560  0.58189066    -0.66300
O73         O  0.53667334  0.89651489  0.62726597    -0.78600
C74         C  0.46677025  0.91547046  0.67233650     0.84900
O75         O  0.48897576  0.89092943  0.66634595    -0.65800
Ni76       Ni  0.52589241  0.83955805  0.57696886     1.27400
Ni77       Ni  0.44224891  0.83734131  0.59992951     1.26100
H78         H  0.44313057  0.83992533  0.64605116     0.39400
O79         O  0.42089449  0.95590243  0.86661495    -0.80600
O80         O  0.30600261  0.95302897  0.95209802    -0.65200
O81         O  0.35365065  0.96094141  0.88747115    -1.11800
C82         C  0.38674890  0.07535372  0.91145549     1.06300
O83         O  0.30721966  0.00703414  0.96956818    -0.78500
O84         O  0.29913922  0.03414212  0.92034557    -0.66000
Ni85       Ni  0.38405533  0.92329694  0.87650936     1.34900
C86         C  0.30316385  0.03703104  0.89573350     0.85100
O87         O  0.30541847  0.91529018  0.90908968    -0.79000
O88         O  0.34882272  0.88805368  0.88589379    -0.89300
C89         C  0.29704414  0.97487601  0.96963968     0.84600
O90         O  0.40874396  0.91596749  0.90830323    -0.67500
O91         O  0.35936664  0.07337875  0.92621305    -0.86800
C92         C  0.39578609  0.91437540  0.93112739     0.85500
C93         C  0.31836500  0.88825276  0.89735619     1.07000
H94         H  0.37892547  0.99127597  0.94011199     0.38800
O95         O  0.35910834  0.99797401  0.92929961    -1.09400
O96         O  0.33261141  0.03014290  0.88347804    -0.66100
Ni97       Ni  0.37637351  0.00473539  0.89389153     1.26300
O98         O  0.36539480  0.92690743  0.93695559    -0.66300
O99         O  0.40054417  0.04828415  0.90077960    -0.78600
C100        C  0.41564501  0.98148441  0.85114716     0.84900
O101        O  0.39431596  0.00627786  0.85809043    -0.65800
Ni102      Ni  0.33489020  0.03683819  0.94596405     1.27400
Ni103      Ni  0.33092534  0.95659813  0.92009590     1.26100
H104        H  0.33570797  0.96405306  0.87427707     0.39400
O105        O  0.60617643  0.45623955  0.66690972    -0.80600
O106        O  0.71357641  0.45414263  0.57621271    -0.65200
O107        O  0.67173087  0.45754197  0.64347323    -1.11800
C108        C  0.62858142  0.57143161  0.61807149     1.06300
O109        O  0.72507796  0.51160166  0.57105569    -0.78500
O110        O  0.71201918  0.55456693  0.61243443    -0.66000
Ni111      Ni  0.63993015  0.42160612  0.65442050     1.34900
C112        C  0.71860181  0.54454895  0.63559992     0.85100
O113        O  0.71526183  0.41088171  0.61758937    -0.79000
O114        O  0.67286572  0.38524360  0.64291909    -0.89300
C115        C  0.73182575  0.47901864  0.56634012     0.84600
O116        O  0.61282725  0.41615254  0.62316183    -0.67500
O117        O  0.64346113  0.56597123  0.59588167    -0.86800
C118        C  0.62471544  0.41475876  0.59993748     0.85500
C119        C  0.70216934  0.38422448  0.62984437     1.07000
H120        H  0.64303631  0.49148798  0.59549641     0.38800
O121        O  0.66482778  0.49769415  0.60424854    -1.09400
O122        O  0.69874738  0.52330658  0.64873916    -0.66100
Ni123      Ni  0.65220750  0.50373129  0.64051462     1.26300
O124        O  0.65469877  0.42757360  0.59343105    -0.66300
O125        O  0.63257897  0.55087073  0.63751866    -0.78600
C126        C  0.61429303  0.48034445  0.68321862     0.84900
O127        O  0.63776489  0.50347336  0.67695416    -0.65800
Ni128      Ni  0.68338192  0.53674578  0.58491133     1.27400
Ni129      Ni  0.69153262  0.45467281  0.60971897     1.26100
H130        H  0.69099091  0.45806294  0.65583795     0.39400
O131        O  0.57656273  0.42349541  0.87548811    -0.80600
O132        O  0.58191492  0.30490926  0.95706668    -0.65200
O133        O  0.57487022  0.35529779  0.89394937    -1.11800
C134        C  0.45660882  0.38155759  0.91676999     1.06300
O135        O  0.52643071  0.30268246  0.97280570    -0.78500
O136        O  0.50009771  0.29631751  0.92369751    -0.66000
Ni137      Ni  0.61114775  0.38843776  0.88495546     1.34900
C138        C  0.49888725  0.30080807  0.89911908     0.85100
O139        O  0.62262245  0.30936003  0.91494805    -0.79000
O140        O  0.64843023  0.35521406  0.89386965    -0.89300
C141        C  0.55903286  0.29377899  0.97333641     0.84600
O142        O  0.61531380  0.41182775  0.91779957    -0.67500
O143        O  0.45918226  0.35481287  0.93163185    -0.86800
C144        C  0.61719684  0.39764635  0.94006561     0.85500
C145        C  0.64954084  0.32438923  0.90422739     1.07000
H146        H  0.54026268  0.37635663  0.94631225     0.38800
O147        O  0.53508037  0.35662285  0.93491547    -1.09400
O148        O  0.50675334  0.33025044  0.88758254    -0.66100
Ni149      Ni  0.52908444  0.37475397  0.89991719     1.26300
O150        O  0.60601758  0.36648795  0.94454172    -0.66300
O151        O  0.48351875  0.39588840  0.90612974    -0.78600
C152        C  0.55169334  0.41764011  0.85948807     0.84900
O153        O  0.52833080  0.39408664  0.86486217    -0.65800
Ni154      Ni  0.49632667  0.33063911  0.95041228     1.27400
Ni155      Ni  0.57888767  0.33144272  0.92587384     1.26100
H156        H  0.57366265  0.33792493  0.88008761     0.39400
O157        O  0.90630719  0.07948763  0.65889238    -0.80600
O158        O  0.78548827  0.07643851  0.57693600    -0.65200
O159        O  0.83821882  0.07436516  0.63950606    -1.11800
C160        C  0.86874853  0.95759020  0.62009064     1.06300
O161        O  0.79160729  0.02197210  0.56036543    -0.78500
O162        O  0.78170895  0.00048032  0.61083368    -0.66000
Ni163      Ni  0.87019078  0.11198144  0.64732622     1.34900
C164        C  0.78597136  0.99898968  0.63540274     0.85100
O165        O  0.78928774  0.11873011  0.61854134    -0.79000
O166        O  0.83563348  0.14703855  0.63708381    -0.89300
C167        C  0.77861530  0.05306173  0.55987499     0.84600
O168        O  0.89325047  0.11518318  0.61389211    -0.67500
O169        O  0.84030490  0.95854480  0.60691799    -0.86800
C170        C  0.87757457  0.11757884  0.59215448     0.85500
C171        C  0.80412386  0.14652033  0.62783339     1.07000
H172        H  0.86111805  0.04010365  0.58751725     0.38800
O173        O  0.84171431  0.03411066  0.59918130    -1.09400
O174        O  0.81572353  0.00609861  0.64674222    -0.66100
Ni175      Ni  0.85980501  0.02978801  0.63409921     1.26300
O176        O  0.84668015  0.10499087  0.58850885    -0.66300
O177        O  0.88349496  0.98552347  0.62828277    -0.78600
C178        C  0.89951722  0.05509462  0.67528400     0.84900
O179        O  0.87791756  0.03042375  0.66917970    -0.65800
Ni180      Ni  0.81750189  0.99381632  0.58522838     1.27400
Ni181      Ni  0.81349913  0.07614077  0.60787299     1.26100
H182        H  0.82106594  0.07273914  0.65370515     0.39400
O183        O  0.95188114  0.12104695  0.86388347    -0.80600
O184        O  0.95797434  0.22881271  0.95520302    -0.65200
O185        O  0.95859830  0.18523539  0.88891455    -1.11800
C186        C  0.07365680  0.14374601  0.90672472     1.06300
O187        O  0.01156269  0.21755326  0.97181971    -0.78500
O188        O  0.03908486  0.23075365  0.92366871    -0.66000
Ni189      Ni  0.92017226  0.15586118  0.87894484     1.34900
C190        C  0.03689868  0.23279586  0.89894396     0.85100
O191        O  0.91579584  0.23257779  0.91402033    -0.79000
O192        O  0.88610915  0.18973981  0.89247667    -0.89300
C193        C  0.98139938  0.23292237  0.97255760     0.84600
O194        O  0.91662781  0.12825453  0.91032033    -0.67500
O195        O  0.07440259  0.16794339  0.92396867    -0.86800
C196        C  0.91321103  0.14096716  0.93315740     0.85500
C197        C  0.88741050  0.21992482  0.90392936     1.07000
H198        H  0.99009387  0.15273408  0.93782687     0.38800
O199        O  0.99787161  0.17364414  0.92854857    -1.09400
O200        O  0.02767770  0.20666017  0.88408721    -0.66100
Ni201      Ni  0.00245914  0.16160532  0.89198060     1.26300
O202        O  0.92590146  0.17109248  0.93923303    -0.66300
O203        O  0.04550192  0.13532057  0.89503111    -0.78600
C204        C  0.97676831  0.12898878  0.84787601     0.84900
O205        O  0.00178653  0.14943675  0.85528893    -0.65800
Ni206      Ni  0.03925148  0.19146290  0.94602617     1.27400
Ni207      Ni  0.95723553  0.20502912  0.92247542     1.26100
H208        H  0.96081287  0.20409339  0.87626004     0.39400
O209        O  0.79921700  0.51070166  0.06804776    -0.80600
O210        O  0.87611589  0.49919357  0.17380955    -0.65200
O211        O  0.85773157  0.49578593  0.10095808    -1.11800
C212        C  0.81868043  0.38121576  0.12334395     1.06300
O213        O  0.91042233  0.45300925  0.16452890    -0.78500
O214        O  0.90849932  0.41201588  0.11979386    -0.66000
Ni215      Ni  0.84051477  0.53537615  0.08200439     1.34900
C216        C  0.89869238  0.41199754  0.09613769     0.85100
O217        O  0.88440321  0.54817653  0.13623275    -0.79000
O218        O  0.88001212  0.56370769  0.09413771    -0.89300
C219        C  0.89965164  0.47675281  0.18059255     0.84600
O220        O  0.81085473  0.55384300  0.10909785    -0.67500
O221        O  0.84680737  0.38175955  0.13735964    -0.86800
C222        C  0.80090632  0.54256518  0.13137176     0.85500
C223        C  0.89104049  0.56908653  0.11732419     1.07000
H224        H  0.82673543  0.45356485  0.15034179     0.38800
O225        O  0.84728544  0.45387023  0.13882494    -1.09400
O226        O  0.86989481  0.42625555  0.08902845    -0.66100
Ni227      Ni  0.83137503  0.45235274  0.10446156     1.26300
O228        O  0.81804770  0.51909385  0.14422630    -0.66300
O229        O  0.80714087  0.40803283  0.11054224    -0.78600
C230        C  0.79406806  0.47825403  0.06211874     0.84900
O231        O  0.81386180  0.45369112  0.07024365    -0.65800
Ni232      Ni  0.87854489  0.41798250  0.15027118     1.27400
Ni233      Ni  0.86584273  0.50056264  0.13745677     1.26100
H234        H  0.88055572  0.49027427  0.09308824     0.39400
O235        O  0.99880163  0.30777719  0.47078452    -0.80600
O236        O  0.99388365  0.38842163  0.35992679    -0.65200
O237        O  0.98891575  0.35698032  0.43096530    -1.11800
C238        C  0.87298988  0.32591299  0.40604489     1.06300
O239        O  0.94682299  0.42049672  0.37011547    -0.78500
O240        O  0.91042821  0.41279898  0.41571706    -0.66000
Ni241      Ni  0.02808754  0.33065825  0.44464270     1.34900
C242        C  0.90772231  0.39926039  0.43828768     0.85100
O243        O  0.03962571  0.39345607  0.39936852    -0.79000
O244        O  0.06457542  0.34999022  0.42149188    -0.89300
C245        C  0.97080797  0.41146436  0.35371348     0.84600
O246        O  0.01781335  0.29442324  0.42054159    -0.67500
O247        O  0.87474096  0.35632306  0.39514844    -0.86800
C248        C  0.01781252  0.29686713  0.39580003     0.85500
C249        C  0.06697656  0.37785113  0.40768636     1.07000
H250        H  0.94752823  0.33593883  0.37819139     0.38800
O251        O  0.94741244  0.35394153  0.39164689    -1.09400
O252        O  0.91824267  0.36793480  0.44308550    -0.66100
Ni253      Ni  0.94450010  0.33172260  0.42427539     1.26300
O254        O  0.01373841  0.32647382  0.38361905    -0.66300
O255        O  0.89990612  0.30988576  0.41560732    -0.78600
C256        C  0.96660852  0.29756964  0.47240007     0.84900
O257        O  0.94307993  0.30611685  0.45605368    -0.65800
Ni258      Ni  0.91188927  0.38764869  0.38319818     1.27400
Ni259      Ni  0.99370308  0.37252857  0.39537574     1.26100
H260        H  0.98465938  0.37732992  0.44204598     0.39400
O261        O  0.73036297  0.02522596  0.06417509    -0.80600
O262        O  0.64082337  0.02544404  0.17344279    -0.65200
O263        O  0.67349785  0.03426188  0.10177964    -1.11800
C264        C  0.70980016  0.14629945  0.13188583     1.06300
O265        O  0.61142999  0.07477656  0.16587001    -0.78500
O266        O  0.62016822  0.11361839  0.12244540    -0.66000
Ni267      Ni  0.69623689  0.99582067  0.08315959     1.34900
C268        C  0.63359894  0.11719948  0.09986411     0.85100
O269        O  0.63477235  0.98220596  0.13201647    -0.79000
O270        O  0.66556438  0.96005690  0.09825324    -0.89300
C271        C  0.61851965  0.04903020  0.18089033     0.84600
O272        O  0.72989149  0.98829880  0.10972400    -0.67500
O273        O  0.67923673  0.14562319  0.14321402    -0.86800
C274        C  0.72856249  0.99049435  0.13448835     0.85500
C275        C  0.64270854  0.95699995  0.11662558     1.07000
H276        H  0.69653439  0.07008699  0.15622976     0.38800
O277        O  0.67823664  0.07210359  0.14318866    -1.09400
O278        O  0.66438103  0.10560597  0.09398689    -0.66100
Ni279      Ni  0.70016015  0.07686737  0.11026988     1.26300
O280        O  0.70215964  0.00367797  0.14755610    -0.66300
O281        O  0.72403786  0.11929410  0.12087616    -0.78600
C282        C  0.73807829  0.05802279  0.06276619     0.84900
O283        O  0.72428283  0.08096428  0.07775537    -0.65800
Ni284      Ni  0.64623804  0.10872195  0.15404438     1.27400
Ni285      Ni  0.65739396  0.02709668  0.13752869     1.26100
H286        H  0.65288469  0.04073138  0.09171782     0.39400
O287        O  0.51539371  0.23711991  0.46691642    -0.80600
O288        O  0.52045797  0.15065324  0.35761419    -0.65200
O289        O  0.52496523  0.18202990  0.42920156    -1.11800
C290        C  0.64172642  0.21012885  0.40320232     1.06300
O291        O  0.56606613  0.11694608  0.36788522    -0.78500
O292        O  0.60285220  0.12432885  0.41331040    -0.66000
Ni293      Ni  0.48592953  0.20594976  0.44628724     1.34900
C294        C  0.60464559  0.13815604  0.43587716     0.85100
O295        O  0.47347113  0.14699791  0.39663991    -0.79000
O296        O  0.44980632  0.17843845  0.42924954    -0.89300
C297        C  0.54245083  0.12616375  0.35159183     0.84600
O298        O  0.48458681  0.24045977  0.41991599    -0.67500
O299        O  0.63953680  0.17977107  0.39220182    -0.86800
C300        C  0.49045911  0.24048903  0.39542827     0.85500
C301        C  0.44736927  0.15584493  0.41095906     1.07000
H302        H  0.56746749  0.20196275  0.37609659     0.38800
O303        O  0.56684847  0.18399259  0.38951413    -1.09400
O304        O  0.59448283  0.16961232  0.44053377    -0.66100
Ni305      Ni  0.56984400  0.20631455  0.42211626     1.26300
O306        O  0.50133917  0.21326546  0.38232170    -0.66300
O307        O  0.61504599  0.22678021  0.41301491    -0.78600
C308        C  0.54813407  0.24520444  0.46851967     0.84900
O309        O  0.57199748  0.23182015  0.45397391    -0.65800
Ni310      Ni  0.60167216  0.14923568  0.38070010     1.27400
Ni311      Ni  0.52002595  0.16670638  0.39327770     1.26100
H312        H  0.52951330  0.16108528  0.43945038     0.39400
O313        O  0.50075333  0.72749805  0.05629243    -0.80600
O314        O  0.49952734  0.63727645  0.16445680    -0.65200
O315        O  0.49181990  0.67607166  0.09514984    -1.11800
C316        C  0.38148751  0.71323888  0.12978310     1.06300
O317        O  0.45095865  0.60964769  0.15257282    -0.78500
O318        O  0.40956953  0.62519153  0.11242242    -0.66000
Ni319      Ni  0.53086740  0.70097668  0.07951692     1.34900
C320        C  0.40736451  0.64049549  0.09058101     0.85100
O321        O  0.54309411  0.63488804  0.12246330    -0.79000
O322        O  0.56785172  0.67807218  0.09940219    -0.89300
C323        C  0.47520585  0.61446683  0.16920839     0.84600
O324        O  0.52555177  0.73586246  0.10565166    -0.67500
O325        O  0.38144013  0.68188008  0.13933678    -0.86800
C326        C  0.52838447  0.73141124  0.13014722     0.85500
C327        C  0.57025959  0.65023713  0.11315330     1.07000
H328        H  0.45617120  0.69470628  0.15113034     0.38800
O329        O  0.45387813  0.67806757  0.13687061    -1.09400
O330        O  0.41990121  0.67130930  0.08663197    -0.66100
Ni331      Ni  0.45006621  0.70347853  0.10585691     1.26300
O332        O  0.52217841  0.70155567  0.14178753    -0.66300
O333        O  0.40841288  0.72737723  0.11846520    -0.78600
C334        C  0.46962017  0.74051753  0.05812903     0.84900
O335        O  0.44776793  0.73237072  0.07599001    -0.65800
Ni336      Ni  0.41699280  0.64616379  0.14579668     1.27400
Ni337      Ni  0.49851339  0.65730995  0.12974662     1.26100
H338        H  0.48511891  0.65693274  0.08364218     0.39400
O339        O  0.28910854  0.52790900  0.45380989    -0.80600
O340        O  0.37536142  0.53507757  0.34876830    -0.65200
O341        O  0.34861733  0.54218580  0.42109693    -1.11800
C342        C  0.31423061  0.65573310  0.39530969     1.06300
O343        O  0.40858575  0.58067565  0.35994682    -0.78500
O344        O  0.40228646  0.62123302  0.40291335    -0.66000
Ni345      Ni  0.33108275  0.50330115  0.44079502     1.34900
C346        C  0.38950253  0.62477029  0.42570862     0.85100
O347        O  0.37891590  0.48818760  0.38804718    -0.79000
O348        O  0.37161958  0.47489372  0.43033862    -0.89300
C349        C  0.40035341  0.55698483  0.34340472     0.84600
O350        O  0.30312454  0.48367508  0.41349843    -0.67500
O351        O  0.34380616  0.65385574  0.38263828    -0.86800
C352        C  0.29521176  0.49322225  0.39045116     0.85500
C353        C  0.38427181  0.46838592  0.40763132     1.07000
H354        H  0.32333408  0.58195244  0.36923644     0.38800
O355        O  0.34233259  0.58194797  0.38181727    -1.09400
O356        O  0.35904043  0.61276160  0.43203663    -0.66100
Ni357      Ni  0.32232515  0.58532390  0.41539104     1.26300
O358        O  0.31345975  0.51589038  0.37719417    -0.66300
O359        O  0.29949419  0.62939578  0.40700386    -0.78600
C360        C  0.28201880  0.56033995  0.45857830     0.84900
O361        O  0.29946401  0.58576558  0.44860695    -0.65800
Ni362      Ni  0.37572970  0.61654721  0.37146398     1.27400
Ni363      Ni  0.36056613  0.53541912  0.38497260     1.26100
H364        H  0.37060390  0.54855272  0.42952349     0.39400
O365        O  0.02711379  0.80763010  0.05677244    -0.80600
O366        O  0.02364299  0.88613424  0.16921640    -0.65200
O367        O  0.03453126  0.85551415  0.09818658    -1.11800
C368        C  0.14521740  0.81767839  0.13051548     1.06300
O369        O  0.07272223  0.91635136  0.16150213    -0.78500
O370        O  0.11594507  0.90665053  0.11987685    -0.66000
Ni371      Ni  0.99592391  0.83085793  0.08198653     1.34900
C372        C  0.12002731  0.89356887  0.09728013     0.85100
O373        O  0.98212641  0.89287570  0.12761336    -0.79000
O374        O  0.95785942  0.85049060  0.10388651    -0.89300
C375        C  0.04641041  0.90905159  0.17630678     0.84600
O376        O  0.00282133  0.79392149  0.10595044    -0.67500
O377        O  0.14408209  0.84759504  0.14232466    -0.86800
C378        C  0.00066249  0.79557573  0.13072056     0.85500
C379        C  0.95504184  0.87768138  0.11849106     1.07000
H380        H  0.06907665  0.83142157  0.15277490     0.38800
O381        O  0.07151734  0.84982702  0.13978538    -1.09400
O382        O  0.10710814  0.86367144  0.09091685    -0.66100
Ni383      Ni  0.07694148  0.82834308  0.10703240     1.26300
O384        O  0.00409860  0.82473458  0.14371195    -0.66300
O385        O  0.11906460  0.80417918  0.11813466    -0.78600
C386        C  0.05926038  0.79681751  0.05663315     0.84900
O387        O  0.08095967  0.80392743  0.07468521    -0.65800
Ni388      Ni  0.10739442  0.88128811  0.15148490     1.27400
Ni389      Ni  0.02670089  0.87040081  0.13372587     1.26100
H390        H  0.04078504  0.87586736  0.08769096     0.39400
O391        O  0.22195121  0.01348801  0.45716152    -0.80600
O392        O  0.14082669  0.00365428  0.35268090    -0.65200
O393        O  0.16227061  0.99973511  0.42515693    -1.11800
C394        C  0.19336326  0.88360451  0.40347567     1.06300
O395        O  0.10470944  0.95975664  0.36338472    -0.78500
O396        O  0.10609181  0.92273879  0.40898672    -0.70800
Ni397      Ni  0.18066325  0.03892938  0.44383259     1.34900
C398        C  0.11774073  0.92069395  0.43207726     0.85100
O399        O  0.13542669  0.05252461  0.39043490    -0.79000
O400        O  0.14106311  0.06795722  0.43246743    -0.89300
C401        C  0.11599584  0.98222772  0.34669997     0.84600
O402        O  0.20962827  0.05636326  0.41607528    -0.67500
O403        O  0.16404608  0.88566027  0.39096758    -0.86800
C404        C  0.21858915  0.04497022  0.39355389     0.85500
C405        C  0.12914409  0.07325253  0.40951677     1.07000
H406        H  0.18876085  0.95575062  0.37481376     0.38800
O407        O  0.16916502  0.95734034  0.38714912    -1.09400
O408        O  0.14867559  0.93109666  0.43797169    -0.66100
Ni409      Ni  0.18715252  0.95549573  0.42101907     1.26300
O410        O  0.20067700  0.02169070  0.38100938    -0.66300
O411        O  0.20868266  0.91013247  0.41434837    -0.78600
C412        C  0.22723708  0.98098022  0.46288062     0.84900
O413        O  0.20758156  0.95632185  0.45453436    -0.65800
Ni414      Ni  0.13469669  0.92341747  0.37765791     1.27400
Ni415      Ni  0.15261715  0.00464010  0.38884637     1.26100
H416        H  0.13959243  0.99488558  0.43346392     0.39400
C417        C  0.08812417  0.98291336  0.27505540     0.16300
C418        C  0.08763137  0.98482551  0.24775801    -0.32700
C419        C  0.06577429  0.96073824  0.23451524     0.20700
C420        C  0.04440520  0.93664729  0.24776768     0.02900
C421        C  0.04412625  0.93546004  0.27503629    -0.22500
C422        C  0.06681948  0.95869398  0.28821538     0.12100
S423        S  0.11663826  0.00596315  0.29465277    -0.06100
C424        C  0.10003416  0.98207685  0.32065754    -0.09600
C425        C  0.07326290  0.95840645  0.31433711    -0.26200
S426        S  0.02320810  0.90681768  0.22820300    -0.03400
C427        C  0.04423963  0.92629712  0.20195475    -0.16900
C428        C  0.06543260  0.95515147  0.20817115    -0.14900
H429        H  0.10511902  0.00274417  0.23725315     0.20500
H430        H  0.02856485  0.91580792  0.28547303     0.16600
H431        H  0.06063647  0.94027039  0.32793502     0.19100
H432        H  0.08193314  0.96952639  0.19432899     0.12400
C433        C  0.22080373  0.78621477  0.40399645     0.16300
C434        C  0.22175891  0.74915204  0.40259681    -0.32700
C435        C  0.25522798  0.73291635  0.40098143     0.20700
C436        C  0.28628619  0.75281845  0.40043430     0.02900
C437        C  0.28535029  0.78983006  0.40230456    -0.22500
C438        C  0.25190996  0.80603846  0.40424484     0.12100
S439        S  0.18287085  0.81082135  0.40452220    -0.06100
C440        C  0.20915121  0.84821274  0.40535730    -0.09600
C441        C  0.24540151  0.84176776  0.40548995    -0.26200
S442        S  0.32416034  0.72845695  0.39723459    -0.03400
C443        C  0.29801045  0.69096800  0.39726287    -0.16900
C444        C  0.26180061  0.69719829  0.39949021    -0.14900
H445        H  0.19747775  0.73369713  0.40247291     0.20500
H446        H  0.30961269  0.80531811  0.40197273     0.16600
H447        H  0.26576861  0.86206873  0.40527191     0.19100
H448        H  0.24150361  0.67682992  0.39965022     0.12400
C449        C  0.22761565  0.75873590  0.13332291     0.16300
C450        C  0.25206256  0.73108836  0.13572912    -0.32700
C451        C  0.28824188  0.73958158  0.13374134     0.20700
C452        C  0.29984063  0.77392425  0.12922301     0.02900
C453        C  0.27539156  0.80177602  0.12738750    -0.22500
C454        C  0.23914425  0.79331728  0.12971955     0.12100
S455        S  0.18244124  0.75373017  0.13434916    -0.06100
C456        C  0.17919039  0.79883997  0.13071204    -0.09600
C457        C  0.21137303  0.81653802  0.12853860    -0.26200
S458        S  0.34496766  0.77800643  0.12573504    -0.03400
C459        C  0.34798581  0.73306252  0.13106101    -0.16900
C460        C  0.31572794  0.71617859  0.13513492    -0.14900
H461        H  0.24328289  0.70407170  0.13877723     0.20500
H462        H  0.28416576  0.82873519  0.12406151     0.16600
H463        H  0.21419155  0.84488046  0.12593263     0.19100
H464        H  0.31246308  0.68796913  0.13818464     0.12400
C465        C  0.44651544  0.56311117  0.23004457     0.16300
C466        C  0.42526522  0.54503605  0.24839600    -0.32700
C467        C  0.43071658  0.55237821  0.27490682     0.20700
C468        C  0.45711183  0.57574919  0.28263528     0.02900
C469        C  0.47888206  0.59316744  0.26432403    -0.22500
C470        C  0.47258063  0.58681207  0.23782589     0.12100
S471        S  0.44010355  0.56199973  0.19724160    -0.06100
C472        C  0.47208730  0.59462753  0.19389134    -0.09600
C473        C  0.48770218  0.60475599  0.21711756    -0.26200
S474        S  0.45732345  0.58421586  0.31520148    -0.03400
C475        C  0.42074287  0.55684481  0.31862604    -0.16900
C476        C  0.40986118  0.54105066  0.29558308    -0.14900
H477        H  0.40399308  0.52767725  0.24221501     0.20500
H478        H  0.49843022  0.61247038  0.27045632     0.16600
H479        H  0.50677251  0.62608850  0.21901075     0.19100
H480        H  0.38652372  0.52444265  0.29374431     0.12400
C481        C  0.31506219  0.07160448  0.38067707     0.16300
C482        C  0.35266027  0.07204054  0.38075877    -0.32700
C483        C  0.36960826  0.10254834  0.39076256     0.20700
C484        C  0.34987775  0.13103845  0.40008861     0.02900
C485        C  0.31280428  0.13101007  0.39918194    -0.22500
C486        C  0.29603283  0.10085750  0.38933498     0.12100
S487        S  0.28852118  0.03564084  0.37373789    -0.06100
C488        C  0.25184650  0.06054706  0.38306912    -0.09600
C489        C  0.26023623  0.09505966  0.38995124    -0.26200
S490        S  0.37419914  0.16455783  0.41315112    -0.03400
C491        C  0.41194533  0.14079802  0.40562021    -0.16900
C492        C  0.40565886  0.10824484  0.39358640    -0.14900
H493        H  0.36790879  0.04920660  0.37436812     0.20500
H494        H  0.29752846  0.15312990  0.40683927     0.16600
H495        H  0.24128079  0.11380856  0.39813221     0.19100
H496        H  0.42621526  0.08971790  0.38760470     0.12400
C497        C  0.44867352  0.38972155  0.40378532     0.16300
C498        C  0.47582361  0.36502591  0.40769319    -0.32700
C499        C  0.47534729  0.33385114  0.39277171     0.20700
C500        C  0.44900161  0.32718176  0.37470810     0.02900
C501        C  0.42275481  0.35289864  0.36972374    -0.22500
C502        C  0.42322243  0.38425105  0.38477359     0.12100
S503        S  0.44251248  0.42711118  0.42220336    -0.06100
C504        C  0.40595634  0.43637113  0.40354805    -0.09600
C505        C  0.39892381  0.41148590  0.38421438    -0.26200
S506        S  0.44889327  0.28420741  0.36335951    -0.03400
C507        C  0.48463583  0.27542406  0.38330293    -0.16900
C508        C  0.49650813  0.30503029  0.39682139    -0.14900
H509        H  0.49539340  0.36902074  0.42280278     0.20500
H510        H  0.40172541  0.34784772  0.35590370     0.16600
H511        H  0.37663140  0.41282136  0.37100785     0.19100
H512        H  0.51637317  0.30402625  0.41201395     0.12400
C513        C  0.85711348  0.90045213  0.13543075     0.16300
C514        C  0.81991839  0.90077572  0.13851124    -0.32700
C515        C  0.80341321  0.93311581  0.14497781     0.20700
C516        C  0.82308455  0.96369702  0.14870654     0.02900
C517        C  0.86047593  0.96306509  0.14665463    -0.22500
C518        C  0.87695550  0.93083424  0.13967797     0.12100
S519        S  0.88158089  0.86497260  0.12454793    -0.06100
C520        C  0.91916488  0.89113237  0.12584012    -0.09600
C521        C  0.91265208  0.92548780  0.13460554    -0.26200
S522        S  0.79765750  0.00129084  0.15149971    -0.03400
C523        C  0.76002884  0.97569682  0.14750378    -0.16900
C524        C  0.76744295  0.93975589  0.14478434    -0.14900
H525        H  0.80432245  0.87728306  0.13455079     0.20500
H526        H  0.87588660  0.98710709  0.14883456     0.16600
H527        H  0.93283496  0.94580053  0.13639257     0.19100
H528        H  0.74777938  0.92012430  0.13940842     0.12400
C529        C  0.55546711  0.82526583  0.14511349     0.16300
C530        C  0.55605808  0.86266661  0.14444591    -0.32700
C531        C  0.58739735  0.87934744  0.13524408     0.20700
C532        C  0.61651292  0.85950796  0.12703250     0.02900
C533        C  0.61634090  0.82248550  0.12866777    -0.22500
C534        C  0.58534052  0.80592967  0.13798017     0.12100
S535        S  0.51853268  0.79938996  0.15065819    -0.06100
C536        C  0.54385406  0.76215716  0.14366648    -0.09600
C537        C  0.57915937  0.77013488  0.13794551    -0.26200
S538        S  0.65094910  0.88379226  0.11455080    -0.03400
C539        C  0.62675086  0.92159355  0.12107407    -0.16900
C540        C  0.59335851  0.91527021  0.13226871    -0.14900
H541        H  0.53269537  0.87798299  0.14976137     0.20500
H542        H  0.63902867  0.80710034  0.12198919     0.16600
H543        H  0.59811028  0.75098107  0.13029552     0.19100
H544        H  0.57446952  0.93574698  0.13769684     0.12400
C545        C  0.58775427  0.04917287  0.25294147     0.16300
C546        C  0.58719690  0.04880194  0.28038006    -0.32700
C547        C  0.56485774  0.07322470  0.29337819     0.20700
C548        C  0.54294151  0.09607721  0.27978077     0.02900
C549        C  0.54273964  0.09573311  0.25238514    -0.22500
C550        C  0.56608431  0.07230016  0.23939956     0.12100
S551        S  0.61704372  0.02581757  0.23346357    -0.06100
C552        C  0.60067562  0.04831472  0.20687665    -0.09600
C553        C  0.57311241  0.07161434  0.21309340    -0.26200
S554        S  0.52080493  0.12627667  0.29905964    -0.03400
C555        C  0.54215381  0.10868648  0.32568908    -0.16900
C556        C  0.56422443  0.08013120  0.31969032    -0.14900
H557        H  0.60503611  0.03180397  0.29112843     0.20500
H558        H  0.52673999  0.11447671  0.24163921     0.16600
H559        H  0.56049419  0.08912841  0.19924421     0.19100
H560        H  0.58084202  0.06660048  0.33366351     0.12400
C561        C  0.06584013  0.21413399  0.37555687     0.16300
C562        C  0.09487453  0.19068032  0.37360738    -0.32700
C563        C  0.09202163  0.15776629  0.38636095     0.20700
C564        C  0.06127900  0.14824958  0.39982805     0.02900
C565        C  0.03183141  0.17106604  0.40085543    -0.22500
C566        C  0.03503929  0.20427844  0.38874281     0.12100
S567        S  0.06684385  0.25796952  0.36679739    -0.06100
C568        C  0.02605741  0.26345914  0.38206778    -0.09600
C569        C  0.01182770  0.23203849  0.39175052    -0.26200
S570        S  0.06401796  0.10859651  0.41586863    -0.03400
C571        C  0.10705198  0.10471651  0.40440587    -0.16900
C572        C  0.11826832  0.13254175  0.38862423    -0.14900
H573        H  0.11944359  0.19864070  0.36406081     0.20500
H574        H  0.00822215  0.16413073  0.41203522     0.16600
H575        H  0.98820753  0.23077843  0.40405448     0.19100
H576        H  0.14448958  0.13448883  0.37974775     0.12400
C577        C  0.16535693  0.40200490  0.39432779     0.16300
C578        C  0.20264343  0.40291776  0.39329722    -0.32700
C579        C  0.21911139  0.43450630  0.38528498     0.20700
C580        C  0.19948039  0.46396449  0.37823322     0.02900
C581        C  0.16193943  0.46280948  0.37870451    -0.22500
C582        C  0.14537230  0.43119650  0.38710676     0.12100
S583        S  0.14082825  0.36703289  0.40566840    -0.06100
C584        C  0.10285604  0.39167259  0.40074918    -0.09600
C585        C  0.10935638  0.42528976  0.39052190    -0.26200
S586        S  0.22503959  0.50106301  0.37258722    -0.03400
C587        C  0.26242881  0.47666172  0.38023453    -0.16900
C588        C  0.25489517  0.44146867  0.38607072    -0.14900
H589        H  0.21822455  0.38038837  0.39955208     0.20500
H590        H  0.14636578  0.48597514  0.37384859     0.16600
H591        H  0.08891053  0.44469876  0.38649798     0.19100
H592        H  0.27438123  0.42279491  0.39325605     0.12400
C593        C  0.73984147  0.23534761  0.40878554     0.16300
C594        C  0.77707688  0.23552777  0.41044641    -0.32700
C595        C  0.79417678  0.26850665  0.41017806     0.20700
C596        C  0.77488403  0.29976777  0.40840658     0.02900
C597        C  0.73769092  0.29960852  0.40733813    -0.22500
C598        C  0.72063545  0.26671370  0.40755358     0.12100
S599        S  0.71437761  0.19815855  0.40732517    -0.06100
C600        C  0.67749532  0.22517711  0.40538696    -0.09600
C601        C  0.68468585  0.26107956  0.40593170    -0.26200
S602        S  0.80018181  0.33691189  0.40654030    -0.03400
C603        C  0.83733552  0.31026649  0.40813770    -0.16900
C604        C  0.83026966  0.27438095  0.41044184    -0.14900
H605        H  0.79205856  0.21104687  0.41133668     0.20500
H606        H  0.72275290  0.32405788  0.40584729     0.16600
H607        H  0.66484357  0.28180835  0.40460079     0.19100
H608        H  0.85031138  0.25379161  0.41128346     0.12400
C609        C  0.95640633  0.64662977  0.12437601     0.16300
C610        C  0.98482413  0.67035292  0.12192678    -0.32700
C611        C  0.98234454  0.70277909  0.13520960     0.20700
C612        C  0.95287409  0.71156151  0.15034833     0.02900
C613        C  0.92486014  0.68708307  0.15371852    -0.22500
C614        C  0.92733554  0.65443768  0.14028902     0.12100
S615        S  0.95323038  0.60755912  0.10761052    -0.06100
C616        C  0.91267507  0.60086251  0.12258885    -0.09600
C617        C  0.90226211  0.62779695  0.13966438    -0.26200
S618        S  0.95231467  0.75516917  0.16023739    -0.03400
C619        C  0.99180423  0.76149696  0.14328088    -0.16900
C620        C  0.00515729  0.73064304  0.13203799    -0.14900
H621        H  0.00719981  0.66452133  0.10911063     0.20500
H622        H  0.90140080  0.69387820  0.16513529     0.16600
H623        H  0.87727951  0.62826479  0.15041076     0.19100
H624        H  0.02788672  0.72993398  0.11882294     0.12400
C625        C  0.70400451  0.56854032  0.14325132     0.16300
C626        C  0.66649310  0.56849751  0.14289847    -0.32700
C627        C  0.64923416  0.59915938  0.13370644     0.20700
C628        C  0.66852715  0.62852004  0.12558681     0.02900
C629        C  0.70567967  0.62895462  0.12674653    -0.22500
C630        C  0.72282221  0.59837624  0.13559580     0.12100
S631        S  0.73059729  0.53245871  0.14936636    -0.06100
C632        C  0.76718856  0.55796601  0.14116615    -0.09600
C633        C  0.75873123  0.59270759  0.13494323    -0.26200
S634        S  0.64348841  0.66208046  0.11324342    -0.03400
C635        C  0.60618061  0.63675367  0.11920259    -0.16900
C636        C  0.61319090  0.60391319  0.13036203    -0.14900
H637        H  0.65152267  0.54510909  0.14836448     0.20500
H638        H  0.72071343  0.65165789  0.11991351     0.16600
H639        H  0.77774867  0.61185733  0.12748418     0.19100
H640        H  0.59311543  0.58439956  0.13529782     0.12400
C641        C  0.75693572  0.29988348  0.12313025     0.16300
C642        C  0.72822817  0.27607365  0.12374258    -0.32700
C643        C  0.73592938  0.23994142  0.12721478     0.20700
C644        C  0.77065910  0.22796155  0.12953714     0.02900
C645        C  0.79922807  0.25180238  0.12947313    -0.22500
C646        C  0.79149801  0.28790564  0.12637874     0.12100
S647        S  0.75352937  0.34479653  0.11892563    -0.06100
C648        C  0.79904394  0.34743482  0.12233812    -0.09600
C649        C  0.81565103  0.31504149  0.12618789    -0.26200
S650        S  0.77464487  0.18298653  0.13215231    -0.03400
C651        C  0.72896422  0.18029147  0.13094435    -0.16900
C652        C  0.71181164  0.21267993  0.12837129    -0.14900
H653        H  0.70111620  0.28527896  0.12157236     0.20500
H654        H  0.82634300  0.24259945  0.13165288     0.16600
H655        H  0.84400798  0.31156701  0.12886023     0.19100
H656        H  0.68326139  0.21597548  0.12685827     0.12400
C657        C  0.97056439  0.43689707  0.28143042     0.16300
C658        C  0.97274418  0.43633139  0.25411257    -0.32700
C659        C  0.94787471  0.45656698  0.24034772     0.20700
C660        C  0.92266642  0.47736653  0.25309996     0.02900
C661        C  0.92093339  0.47845435  0.28039463    -0.22500
C662        C  0.94507868  0.45739551  0.29414072     0.12100
S663        S  0.99514561  0.41073592  0.30167883    -0.06100
C664        C  0.97016792  0.42701530  0.32742414    -0.09600
C665        C  0.94494230  0.45204165  0.32049861    -0.26200
S666        S  0.89305099  0.49764410  0.23290023    -0.03400
C667        C  0.91428055  0.47708038  0.20706783    -0.16900
C668        C  0.94326826  0.45644422  0.21391465    -0.14900
H669        H  0.99178028  0.41948568  0.24402154     0.20500
H670        H  0.90052667  0.49366385  0.29046534     0.16600
H671        H  0.92594759  0.46410465  0.33387631     0.19100
H672        H  0.95900989  0.44067767  0.20037646     0.12400
C673        C  0.93139671  0.35917317  0.03677653     0.16300
C674        C  0.93204642  0.34187977  0.01256433    -0.32700
C675        C  0.95085856  0.30993336  0.01062587     0.20700
C676        C  0.96947224  0.29626621  0.03154172     0.02900
C677        C  0.96887429  0.31371628  0.05591376    -0.22500
C678        C  0.94896464  0.34528850  0.05812640     0.12100
S679        S  0.90673231  0.39599034  0.04342323    -0.06100
C680        C  0.91896862  0.39251553  0.07570908    -0.09600
C681        C  0.94209187  0.36451115  0.08061243    -0.26200
S682        S  0.99114267  0.25719886  0.02458242    -0.03400
C683        C  0.97358021  0.25882959  0.99357444    -0.16900
C684        C  0.95280940  0.28853725  0.98903668    -0.14900
H685        H  0.91743966  0.35227758  0.99613939     0.20500
H686        H  0.98247526  0.30267601  0.07256258     0.16600
H687        H  0.95108363  0.35697448  0.09983787     0.19100
H688        H  0.94019173  0.29449719  0.97062604     0.12400
C689        C  0.84980821  0.08533939  0.97690857     0.16300
C690        C  0.82579706  0.06052748  0.98780192    -0.32700
C691        C  0.80551485  0.07103499  0.00987378     0.20700
C692        C  0.80910504  0.10473098  0.02036006     0.02900
C693        C  0.83333643  0.12909117  0.00981360    -0.22500
C694        C  0.85356401  0.11861031  0.98801938     0.12100
S695        S  0.87526846  0.07936572  0.94913827    -0.06100
C696        C  0.89126944  0.12203253  0.95293139    -0.09600
C697        C  0.87743268  0.13939892  0.97468049    -0.26200
S698        S  0.78182634  0.11336788  0.04635357    -0.03400
C699        C  0.76515367  0.07095599  0.04370142    -0.16900
C700        C  0.78039358  0.05126411  0.02339305    -0.14900
H701        H  0.82267242  0.03447580  0.97923940     0.20500
H702        H  0.83597836  0.15538983  0.01807599     0.16600
H703        H  0.88318116  0.16665606  0.97979200     0.19100
H704        H  0.77343261  0.02416121  0.01874360     0.12400
C705        C  0.92544754  0.06057098  0.74771005     0.16300
C706        C  0.92508398  0.06042059  0.77509209    -0.32700
C707        C  0.94877947  0.08305823  0.78805363     0.20700
C708        C  0.97242447  0.10456222  0.77451531     0.02900
C709        C  0.97297320  0.10456126  0.74700901    -0.22500
C710        C  0.94867957  0.08235023  0.73400295     0.12100
S711        S  0.89670814  0.03709523  0.72850360    -0.06100
C712        C  0.91552569  0.05728337  0.70157243    -0.09600
C713        C  0.94309097  0.08055394  0.70752439    -0.26200
S714        S  0.99733732  0.13166187  0.79428798    -0.03400
C715        C  0.97497187  0.11428092  0.82098298    -0.16900
C716        C  0.95024756  0.08840093  0.81449375    -0.14900
H717        H  0.90626654  0.04420468  0.78587156     0.20500
H718        H  0.99067592  0.12196002  0.73622979     0.16600
H719        H  0.95724616  0.09654923  0.69328515     0.19100
H720        H  0.93287975  0.07522396  0.82841448     0.12400
C721        C  0.89981750  0.17952829  0.53561411     0.16300
C722        C  0.89670718  0.20302601  0.51471479    -0.32700
C723        C  0.92362199  0.22820424  0.51125508     0.20700
C724        C  0.95290103  0.22959207  0.52746949     0.02900
C725        C  0.95584656  0.20621221  0.54867735    -0.22500
C726        C  0.92840523  0.18133809  0.55248500     0.12100
S727        S  0.86869132  0.14865829  0.54367841    -0.06100
C728        C  0.89345494  0.13866668  0.57082190    -0.09600
C729        C  0.92493973  0.15779822  0.57283332    -0.26200
S730        S  0.98361750  0.26102991  0.51868505    -0.03400
C731        C  0.95618362  0.27271135  0.49327690    -0.16900
C732        C  0.92508927  0.25306672  0.49194508    -0.14900
H733        H  0.87401272  0.20199556  0.50185763     0.20500
H734        H  0.97832001  0.20753182  0.56171128     0.16600
H735        H  0.94314678  0.15610758  0.58903984     0.19100
H736        H  0.90521164  0.25578086  0.47689636     0.12400
C737        C  0.71374408  0.06462337  0.50248011     0.16300
C738        C  0.69474884  0.06309191  0.47895452    -0.32700
C739        C  0.66542084  0.08596524  0.47619846     0.20700
C740        C  0.65497306  0.10847873  0.49630697     0.02900
C741        C  0.67368049  0.10975137  0.51979555    -0.22500
C742        C  0.70358907  0.08787343  0.52218295     0.12100
S743        S  0.75066970  0.03993872  0.50968731    -0.06100
C744        C  0.75285427  0.06195205  0.53923943    -0.09600
C745        C  0.72605504  0.08676819  0.54308519    -0.26200
S746        S  0.62116754  0.13650759  0.48862744    -0.03400
C747        C  0.62173371  0.11896589  0.45750252    -0.16900
C748        C  0.64604137  0.09154144  0.45388063    -0.14900
H749        H  0.70315417  0.04571601  0.46320190     0.20500
H750        H  0.66606393  0.12806733  0.53518248     0.16600
H751        H  0.72263794  0.10258777  0.56061335     0.19100
H752        H  0.65148030  0.07866364  0.43534260     0.12400
C753        C  0.67298720  0.45478229  0.98636544     0.16300
C754        C  0.69607073  0.48008729  0.99720622    -0.32700
C755        C  0.71824848  0.46900555  0.01759458     0.20700
C756        C  0.71672806  0.43454920  0.02695363     0.02900
C757        C  0.69288416  0.40987976  0.01686489    -0.22500
C758        C  0.67141326  0.42065632  0.99628030     0.12100
S759        S  0.64788033  0.46075570  0.95901332    -0.06100
C760        C  0.63551439  0.41676915  0.96112017    -0.09600
C761        C  0.64959763  0.39904297  0.98225348    -0.26200
S762        S  0.74755044  0.42460883  0.04971166    -0.03400
C763        C  0.76311510  0.46729424  0.04686390    -0.16900
C764        C  0.74470822  0.48835890  0.02938486    -0.14900
H765        H  0.69795072  0.50658258  0.98924926     0.20500
H766        H  0.69238221  0.38283419  0.02389646     0.16600
H767        H  0.64624987  0.37099940  0.98603207     0.19100
H768        H  0.75120415  0.51561946  0.02484212     0.12400
C769        C  0.60184129  0.22092709  0.01419289     0.16300
C770        C  0.62400857  0.19409426  0.02331026    -0.32700
C771        C  0.61266649  0.17515268  0.04525590     0.20700
C772        C  0.58067721  0.18254424  0.05785410     0.02900
C773        C  0.55792122  0.20910129  0.04833370    -0.22500
C774        C  0.56930643  0.22811878  0.02612720     0.12100
S775        S  0.61181958  0.24692841  0.98811836    -0.06100
C776        C  0.57136180  0.26763168  0.99259721    -0.09600
C777        C  0.55139476  0.25494332  0.01362228    -0.26200
S778        S  0.57399979  0.15846837  0.08583570    -0.03400
C779        C  0.61475863  0.13844414  0.08021642    -0.16900
C780        C  0.63186517  0.14963102  0.05762126    -0.14900
H781        H  0.64939791  0.18859706  0.01392322     0.20500
H782        H  0.53288970  0.21510358  0.05804777     0.16600
H783        H  0.52518495  0.26443798  0.01919064     0.19100
H784        H  0.65826041  0.14131100  0.05145333     0.12400
C785        C  0.80511949  0.28068755  0.90799041     0.16300
C786        C  0.78052475  0.30870219  0.90896972    -0.32700
C787        C  0.74423892  0.30028389  0.90640295     0.20700
C788        C  0.73287084  0.26555758  0.90348836     0.02900
C789        C  0.75741173  0.23772579  0.90217931    -0.22500
C790        C  0.79357935  0.24617904  0.90431982     0.12100
S791        S  0.85046225  0.28481613  0.91053684    -0.06100
C792        C  0.85363671  0.23967415  0.90584726    -0.09600
C793        C  0.82116509  0.22272329  0.90297379    -0.26200
S794        S  0.68772738  0.26059989  0.90174336    -0.03400
C795        C  0.68404677  0.30591153  0.90424818    -0.16900
C796        C  0.71626889  0.32363305  0.90653757    -0.14900
H797        H  0.78925000  0.33581765  0.91151590     0.20500
H798        H  0.74870593  0.21061221  0.89954813     0.16600
H799        H  0.81788346  0.19450105  0.89993563     0.19100
H800        H  0.71898076  0.35206505  0.90861507     0.12400
C801        C  0.76035530  0.30070630  0.62327890     0.16300
C802        C  0.78731893  0.27566163  0.61886801    -0.32700
C803        C  0.77930351  0.24000172  0.62396328     0.20700
C804        C  0.74589666  0.22954789  0.63278667     0.02900
C805        C  0.71917482  0.25465416  0.63764223    -0.22500
C806        C  0.72727293  0.29032913  0.63275966     0.12100
S807        S  0.76420783  0.34524369  0.61766898    -0.06100
C808        C  0.72095413  0.34994589  0.62868077    -0.09600
C809        C  0.70472291  0.31844535  0.63609102    -0.26200
S810        S  0.74126528  0.18482593  0.63707729    -0.03400
C811        C  0.78503101  0.18038012  0.62748534    -0.16900
C812        C  0.80198701  0.21188314  0.62116311    -0.14900
H813        H  0.81333622  0.28357834  0.61168866     0.20500
H814        H  0.69315160  0.24672969  0.64480296     0.16600
H815        H  0.67756858  0.31614534  0.64321176     0.19100
H816        H  0.82952976  0.21401104  0.61486725     0.12400
C817        C  0.56110844  0.46012235  0.74592405     0.16300
C818        C  0.54048839  0.44221065  0.76476443    -0.32700
C819        C  0.54830472  0.44797074  0.79115806     0.20700
C820        C  0.57443369  0.47193076  0.79835434     0.02900
C821        C  0.59447771  0.49056217  0.77949860    -0.22500
C822        C  0.58778520  0.48351226  0.75304705     0.12100
S823        S  0.55922949  0.45215101  0.71325779    -0.06100
C824        C  0.59546178  0.47974735  0.70883102    -0.09600
C825        C  0.60753044  0.49517407  0.73177820    -0.26200
S826        S  0.58291525  0.47223594  0.83094921    -0.03400
C827        C  0.55224266  0.43846763  0.83497536    -0.16900
C828        C  0.53509174  0.42893480  0.81213920    -0.14900
H829        H  0.52082443  0.42280302  0.75902634     0.20500
H830        H  0.61593609  0.50798992  0.78521668     0.16600
H831        H  0.63087948  0.51187029  0.73308090     0.19100
H832        H  0.51643453  0.40719862  0.81054196     0.12400
C833        C  0.81162353  0.43818814  0.52935529     0.16300
C834        C  0.83770596  0.41499199  0.51960235    -0.32700
C835        C  0.85575947  0.42456942  0.49660368     0.20700
C836        C  0.84883409  0.45631538  0.48409348     0.02900
C837        C  0.82339955  0.48019536  0.49436556    -0.22500
C838        C  0.80464199  0.47019581  0.51717537     0.12100
S839        S  0.78435647  0.42903314  0.55526429    -0.06100
C840        C  0.76292472  0.46872460  0.54996204    -0.09600
C841        C  0.77690629  0.48822183  0.52920948    -0.26200
S842        S  0.87088316  0.46083486  0.45478071    -0.03400
C843        C  0.88910471  0.41926233  0.45932378    -0.16900
C844        C  0.87906714  0.40354993  0.48275812    -0.14900
H845        H  0.84251304  0.38970093  0.52887742     0.20500
H846        H  0.81732998  0.50466824  0.48435795     0.16600
H847        H  0.76648379  0.51340157  0.52267955     0.19100
H848        H  0.88640283  0.37695840  0.48853839     0.12400
C849        C  0.57008910  0.35312144  0.55576228     0.16300
C850        C  0.54737739  0.32702346  0.54550011    -0.32700
C851        C  0.55761591  0.31067758  0.52182475     0.20700
C852        C  0.58888985  0.32017808  0.50901699     0.02900
C853        C  0.61086875  0.34682166  0.51881491    -0.22500
C854        C  0.60081034  0.36286973  0.54240252     0.12100
S855        S  0.56514677  0.37342557  0.58560052    -0.06100
C856        C  0.60491720  0.39511647  0.57978224    -0.09600
C857        C  0.62041348  0.38721098  0.55577412    -0.26200
S858        S  0.59823852  0.29611531  0.48166329    -0.03400
C859        C  0.55945156  0.27283413  0.48710806    -0.16900
C860        C  0.54018680  0.28371321  0.50904467    -0.14900
H861        H  0.52348532  0.31899964  0.55590808     0.20500
H862        H  0.63543402  0.35395381  0.50888626     0.16600
H863        H  0.64607363  0.39695420  0.54913103     0.19100
H864        H  0.51522315  0.27217672  0.51548231     0.12400
C865        C  0.22433905  0.09435919  0.88057080     0.16300
C866        C  0.20108551  0.12341529  0.88312557    -0.32700
C867        C  0.16510088  0.11642359  0.88897787     0.20700
C868        C  0.15253009  0.08198342  0.89094315     0.02900
C869        C  0.17570271  0.05299853  0.88820125    -0.22500
C870        C  0.21191376  0.06002733  0.88345986     0.12100
S871        S  0.26971890  0.09736223  0.87820111    -0.06100
C872        C  0.27225977  0.05205966  0.88225122    -0.09600
C873        C  0.23917503  0.03577283  0.88431040    -0.26200
S874        S  0.10818024  0.07893299  0.89847449    -0.03400
C875        C  0.10671348  0.12450190  0.89998729    -0.16900
C876        C  0.13895537  0.14100172  0.89447827    -0.14900
H877        H  0.21097405  0.15032033  0.88203137     0.20500
H878        H  0.16620145  0.02616282  0.89092467     0.16600
H879        H  0.23543650  0.00818836  0.88945488     0.19100
H880        H  0.14299197  0.16940950  0.89450364     0.12400
C881        C  0.41077385  0.17289142  0.89879664     0.16300
C882        C  0.41070963  0.20989233  0.89689400    -0.32700
C883        C  0.44227067  0.22660688  0.88883414     0.20700
C884        C  0.47270220  0.20740738  0.88286446     0.02900
C885        C  0.47245787  0.17008841  0.88393121    -0.22500
C886        C  0.44077688  0.15329654  0.89217516     0.12100
S887        S  0.37583074  0.14838484  0.91020887    -0.06100
C888        C  0.40137629  0.11091491  0.90571745    -0.09600
C889        C  0.43541117  0.11748215  0.89584437    -0.26200
S890        S  0.50983079  0.23329707  0.87854151    -0.03400
C891        C  0.48408065  0.27034018  0.88494064    -0.16900
C892        C  0.44841378  0.26239700  0.88929569    -0.14900
H893        H  0.38746120  0.22514451  0.90260824     0.20500
H894        H  0.49635200  0.15493993  0.87979770     0.16600
H895        H  0.45525317  0.09726734  0.89197777     0.19100
H896        H  0.42899125  0.28148818  0.89636178     0.12400
C897        C  0.22749565  0.92821050  0.01257794     0.16300
C898        C  0.20173311  0.90473289  0.02204964    -0.32700
C899        C  0.18172750  0.91515782  0.04388369     0.20700
C900        C  0.18734068  0.94740316  0.05616235     0.02900
C901        C  0.21291637  0.97138991  0.04634113    -0.22500
C902        C  0.23278913  0.96106287  0.02408856     0.12100
S903        S  0.25394064  0.91974823  0.98625171    -0.06100
C904        C  0.27212137  0.96138440  0.98983892    -0.09600
C905        C  0.25845523  0.98051165  0.01096210    -0.26200
S906        S  0.16178413  0.95328899  0.08378172    -0.03400
C907        C  0.14308884  0.91212882  0.07820482    -0.16900
C908        C  0.15623503  0.89518270  0.05611696    -0.14900
H909        H  0.19756864  0.87923712  0.01282066     0.20500
H910        H  0.21729186  0.99674141  0.05570482     0.16600
H911        H  0.26622353  0.00724971  0.01604536     0.19100
H912        H  0.14886068  0.86869854  0.05002307     0.12400
C913        C  0.44940646  0.85152868  0.97396938     0.16300
C914        C  0.47061497  0.82343864  0.98275726    -0.32700
C915        C  0.46049968  0.80692895  0.00621456     0.20700
C916        C  0.43112845  0.81854275  0.02049487     0.02900
C917        C  0.41063669  0.84716213  0.01213967    -0.22500
C918        C  0.42017693  0.86300587  0.98844540     0.12100
S919        S  0.45393194  0.87169012  0.94430353    -0.06100
C920        C  0.41541980  0.89493317  0.95125145    -0.09600
C921        C  0.40096170  0.88827477  0.97574247    -0.26200
S922        S  0.42201217  0.79448323  0.04770281    -0.03400
C923        C  0.45819556  0.76824996  0.03998481    -0.16900
C924        C  0.47643864  0.77805250  0.01745791    -0.14900
H925        H  0.49303543  0.81390884  0.97127870     0.20500
H926        H  0.38733874  0.85573185  0.02308994     0.16600
H927        H  0.37610139  0.89922398  0.98303894     0.19100
H928        H  0.49995378  0.76488241  0.00980158     0.12400
C929        C  0.66039919  0.90848584  0.63418321     0.16300
C930        C  0.69721955  0.90921100  0.63849311    -0.32700
C931        C  0.71259226  0.94158339  0.64593268     0.20700
C932        C  0.69222990  0.97190817  0.64905740     0.02900
C933        C  0.65513365  0.97090005  0.64570084    -0.22500
C934        C  0.63977860  0.93853910  0.63808200     0.12100
S935        S  0.63735959  0.87268774  0.62267869    -0.06100
C936        C  0.59927857  0.89816522  0.62360625    -0.09600
C937        C  0.60457070  0.93262694  0.63238721    -0.26200
S938        S  0.71685490  0.00973719  0.65271183    -0.03400
C939        C  0.75512036  0.98461604  0.64969226    -0.16900
C940        C  0.74839377  0.94856382  0.64715405    -0.14900
H941        H  0.71347680  0.88596540  0.63490992     0.20500
H942        H  0.63921132  0.99471688  0.64753332     0.16600
H943        H  0.58386775  0.95252225  0.63393539     0.19100
H944        H  0.76866891  0.92918995  0.64215490     0.12400
C945        C  0.55589865  0.71179877  0.64684617     0.16300
C946        C  0.58041662  0.68548661  0.65455996    -0.32700
C947        C  0.58367299  0.65468266  0.63887804     0.20700
C948        C  0.56335668  0.65040967  0.61664938     0.02900
C949        C  0.53787645  0.67571413  0.60975088    -0.22500
C950        C  0.53469294  0.70626234  0.62529515     0.12100
S951        S  0.55232308  0.75412422  0.65961296    -0.06100
C952        C  0.52214566  0.76425650  0.63544245    -0.09600
C953        C  0.51457937  0.73533031  0.61944729    -0.26200
S954        S  0.57380229  0.61375036  0.59837928    -0.03400
C955        C  0.60528502  0.60296269  0.62120455    -0.16900
C956        C  0.60740819  0.62700101  0.64187619    -0.14900
H957        H  0.59749138  0.68963484  0.67118834     0.20500
H958        H  0.52239724  0.67258847  0.59216560     0.16600
H959        H  0.49836154  0.73689015  0.60209477     0.19100
H960        H  0.62624963  0.62500932  0.65766367     0.12400
C961        C  0.45001787  0.96949618  0.73541761     0.16300
C962        C  0.43363935  0.99061409  0.75482956    -0.32700
C963        C  0.44083921  0.98289002  0.78109288     0.20700
C964        C  0.46458475  0.95622512  0.78750215     0.02900
C965        C  0.48171024  0.93575901  0.76807954    -0.22500
C966        C  0.47334311  0.94249409  0.74187237     0.12100
S967        S  0.44032369  0.97120270  0.70296883    -0.06100
C968        C  0.46715695  0.93452607  0.69783756    -0.09600
C969        C  0.48359804  0.92250964  0.72036657    -0.26200
S970        S  0.46680872  0.94799915  0.82013128    -0.03400
C971        C  0.43443266  0.97989529  0.82548070    -0.16900
C972        C  0.42368546  0.99693426  0.80284904    -0.14900
H973        H  0.41437119  0.01071108  0.74970868     0.20500
H974        H  0.49907146  0.91403395  0.77327872     0.16600
H975        H  0.50013562  0.89905362  0.72130049     0.19100
H976        H  0.40243436  0.01627816  0.80207626     0.12400
C977        C  0.34663941  0.96021069  0.54105234     0.16300
C978        C  0.32236448  0.98446532  0.53030274    -0.32700
C979        C  0.30153526  0.97290868  0.50921248     0.20700
C980        C  0.30515251  0.93888499  0.49921990     0.02900
C981        C  0.33012227  0.91523238  0.50930861    -0.22500
C982        C  0.35052925  0.92660794  0.53044760     0.12100
S983        S  0.37098673  0.96685875  0.56883806    -0.06100
C984        C  0.38643602  0.92388290  0.56597629    -0.09600
C985        C  0.37364691  0.90606026  0.54425982    -0.26200
S986        S  0.27566466  0.92837942  0.47544183    -0.03400
C987        C  0.25807974  0.97035011  0.47861226    -0.16900
C988        C  0.27477137  0.99145732  0.49707007    -0.14900
H989        H  0.31879420  0.01059641  0.53869297     0.20500
H990        H  0.33248610  0.88851869  0.50170411     0.16600
H991        H  0.37893146  0.87845829  0.53982272     0.19100
H992        H  0.26691205  0.01827707  0.50198374     0.12400
C993        C  0.42178708  0.73221741  0.50923419     0.16300
C994        C  0.39967466  0.70495861  0.50067969    -0.32700
C995        C  0.41101595  0.68500062  0.47918352     0.20700
C996        C  0.44294874  0.69191445  0.46640927     0.02900
C997        C  0.46578332  0.71888663  0.47546787    -0.22500
C998        C  0.45442648  0.73889996  0.49734007     0.12100
S999        S  0.41164273  0.75908642  0.53478601    -0.06100
C1000       C  0.45233781  0.77945993  0.53050973    -0.09600
C1001       C  0.47244520  0.76607752  0.50967771    -0.26200
S1002       S  0.44935406  0.66664997  0.43882955    -0.03400
C1003       C  0.40868181  0.64664103  0.44499052    -0.16900
C1004       C  0.39177635  0.65885301  0.46741980    -0.14900
H1005       H  0.37430396  0.69985612  0.51019335     0.20500
H1006       H  0.49084940  0.72440226  0.46567554     0.16600
H1007       H  0.49890707  0.77501480  0.50432709     0.19100
H1008       H  0.36540904  0.65084406  0.47382794     0.12400
C1009       C  0.07998364  0.38362273  0.90788924     0.16300
C1010       C  0.05401436  0.35802997  0.91301478    -0.32700
C1011       C  0.05541800  0.32641813  0.89867975     0.20700
C1012       C  0.08174883  0.31993063  0.88015981     0.02900
C1013       C  0.10733105  0.34620117  0.87434828    -0.22500
C1014       C  0.10566048  0.37826853  0.88862039     0.12100
S1015       S  0.08392500  0.42245340  0.92481446    -0.06100
C1016       C  0.11984881  0.43258131  0.90523888    -0.09600
C1017       C  0.12845237  0.40676464  0.88673701    -0.26200
S1018       S  0.08158723  0.27707474  0.86841148    -0.03400
C1019       C  0.04555396  0.26833209  0.88866939    -0.16900
C1020       C  0.03428291  0.29760707  0.90298033    -0.14900
H1021       H  0.03418353  0.36208234  0.92823995     0.20500
H1022       H  0.12828237  0.34141598  0.86008790     0.16600
H1023       H  0.15077689  0.40837239  0.87323404     0.19100
H1024       H  0.01397663  0.29664508  0.91816794     0.12400
C1025       C  0.32367927  0.45951304  0.88032373     0.16300
C1026       C  0.36110579  0.45949449  0.88129979    -0.32700
C1027       C  0.37784620  0.43069301  0.89360776     0.20700
C1028       C  0.35816845  0.40315272  0.90430727     0.02900
C1029       C  0.32102131  0.40264283  0.90261715    -0.22500
C1030       C  0.30439582  0.43133985  0.89040406     0.12100
S1031       S  0.29776003  0.49455226  0.87068487    -0.06100
C1032       C  0.26075102  0.47119447  0.88097583    -0.09600
C1033       C  0.26856302  0.43734142  0.88990554    -0.26200
S1034       S  0.38290876  0.37160845  0.91957290    -0.03400
C1035       C  0.42057612  0.39512424  0.91101546    -0.16900
C1036       C  0.41381147  0.42611413  0.89726526    -0.14900
H1037       H  0.37640943  0.48161196  0.87380419     0.20500
H1038       H  0.30561303  0.38140656  0.91133776     0.16600
H1039       H  0.24922493  0.41988891  0.89904381     0.19100
H1040       H  0.43409253  0.44423437  0.89027158     0.12400
C1041       C  0.27182853  0.73492967  0.90058197     0.16300
C1042       C  0.29991921  0.75915247  0.90153710    -0.32700
C1043       C  0.29157987  0.79521517  0.89965895     0.20700
C1044       C  0.25674740  0.80699123  0.89761829     0.02900
C1045       C  0.22855176  0.78267988  0.89635356    -0.22500
C1046       C  0.23704681  0.74644511  0.89757027     0.12100
S1047       S  0.27666117  0.68998660  0.90225116    -0.06100
C1048       C  0.23150015  0.68652399  0.89783847    -0.09600
C1049       C  0.21376668  0.71867342  0.89578038    -0.26200
S1050       S  0.25258605  0.85218794  0.89647775    -0.03400
C1051       C  0.29834658  0.85482343  0.89781944    -0.16900
C1052       C  0.31546975  0.82245374  0.89949697    -0.14900
H1053       H  0.32718364  0.75025943  0.90340862     0.20500
H1054       H  0.20130937  0.79155477  0.89427747     0.16600
H1055       H  0.18533497  0.72150996  0.89313101     0.19100
H1056       H  0.34403526  0.81907639  0.90080113     0.12400
C1057       C  0.10431449  0.72966760  0.01067797     0.16300
C1058       C  0.12696622  0.70391414  0.00012165    -0.32700
C1059       C  0.11533379  0.68515677  0.97826118     0.20700
C1060       C  0.08288847  0.69210236  0.96674398     0.02900
C1061       C  0.05974115  0.71781177  0.97760423    -0.22500
C1062       C  0.07116793  0.73624525  0.00005149     0.12100
S1063       S  0.11394859  0.75417314  0.03757961    -0.06100
C1064       C  0.07243744  0.77330028  0.03543122    -0.09600
C1065       C  0.05250817  0.76134643  0.01434215    -0.26200
S1066       S  0.07570996  0.66760096  0.93888904    -0.03400
C1067       C  0.11647808  0.64735342  0.94356573    -0.16900
C1068       C  0.13420638  0.65944826  0.96545402    -0.14900
H1069       H  0.15265401  0.69858853  0.00869593     0.20500
H1070       H  0.03411090  0.72319377  0.96898819     0.16600
H1071       H  0.02561877  0.76977161  0.01015098     0.19100
H1072       H  0.16065486  0.65113332  0.97106378     0.12400
C1073       C  0.35172110  0.58483527  0.04277655     0.16300
C1074       C  0.33035882  0.55917734  0.03051539    -0.32700
C1075       C  0.31057037  0.56979785  0.00867920     0.20700
C1076       C  0.31249226  0.60430361  0.99948801     0.02900
C1077       C  0.33436855  0.62953289  0.01129590    -0.22500
C1078       C  0.35372899  0.61908422  0.03314490     0.12100
S1079       S  0.37517661  0.57862696  0.07088945    -0.06100
C1080       C  0.38787848  0.62258013  0.06941639    -0.09600
C1081       C  0.37462365  0.64067284  0.04810998    -0.26200
S1082       S  0.28470967  0.61333434  0.97440808    -0.03400
C1083       C  0.26970981  0.57026493  0.97611686    -0.16900
C1084       C  0.28629675  0.54976780  0.99497364    -0.14900
H1085       H  0.32832548  0.53253420  0.03817969     0.20500
H1086       H  0.33531864  0.65655990  0.00425830     0.16600
H1087       H  0.37867058  0.66864243  0.04442174     0.19100
H1088       H  0.27981232  0.52241233  0.99919967     0.12400
C1089       C  0.95994816  0.82736207  0.64199392     0.16300
C1090       C  0.95911356  0.86456804  0.64002442    -0.32700
C1091       C  0.92586294  0.88094042  0.63623476     0.20700
C1092       C  0.89487138  0.86110493  0.63489595     0.02900
C1093       C  0.89561834  0.82415683  0.63757418    -0.22500
C1094       C  0.92880889  0.80780397  0.64091461     0.12100
S1095       S  0.99778155  0.80191184  0.64206519    -0.06100
C1096       C  0.97141201  0.76452885  0.64059833    -0.09600
C1097       C  0.93520226  0.77200678  0.64036431    -0.26200
S1098       S  0.85766532  0.88514102  0.62790277    -0.03400
C1099       C  0.88386106  0.92258031  0.62674504    -0.16900
C1100       C  0.91962428  0.91644275  0.63190888    -0.14900
H1101       H  0.98346757  0.87989943  0.64009529     0.20500
H1102       H  0.87151462  0.80863797  0.63582523     0.16600
H1103       H  0.91476762  0.75235045  0.63686910     0.19100
H1104       H  0.94009889  0.93662707  0.63155715     0.12400
C1105       C  0.85231490  0.62660278  0.62997358     0.16300
C1106       C  0.81554530  0.62846346  0.63437754    -0.32700
C1107       C  0.79781869  0.59727895  0.64152142     0.20700
C1108       C  0.81591646  0.56562018  0.64473736     0.02900
C1109       C  0.85312792  0.56400421  0.64122257    -0.22500
C1110       C  0.87086494  0.59522361  0.63353555     0.12100
S1111       S  0.87751198  0.66087469  0.61859844    -0.06100
C1112       C  0.91374045  0.63301791  0.61869901    -0.09600
C1113       C  0.90654548  0.59893316  0.62752639    -0.26200
S1114       S  0.78846490  0.52981477  0.64920104    -0.03400
C1115       C  0.75236614  0.55776276  0.64612834    -0.16900
C1116       C  0.76165012  0.59302526  0.64273775    -0.14900
H1117       H  0.80105899  0.65281990  0.63101404     0.20500
H1118       H  0.86731675  0.53916847  0.64303147     0.16600
H1119       H  0.92612667  0.57798614  0.62896384     0.19100
H1120       H  0.74284934  0.61381424  0.63811603     0.12400
C1121       C  0.24023627  0.73593979  0.61570789     0.16300
C1122       C  0.27753622  0.73741221  0.61478451    -0.32700
C1123       C  0.29344521  0.77098398  0.61416309     0.20700
C1124       C  0.27302007  0.80163058  0.61453968     0.02900
C1125       C  0.23576286  0.80013205  0.61484220    -0.22500
C1126       C  0.21985748  0.76660640  0.61536735     0.12100
S1127       S  0.21599810  0.69793935  0.61788493    -0.06100
C1128       C  0.17797104  0.72356293  0.61778641    -0.09600
C1129       C  0.18399399  0.75967402  0.61622181    -0.26200
S1130       S  0.29705299  0.83976890  0.61565467    -0.03400
C1131       C  0.33512511  0.81430432  0.61546563    -0.16900
C1132       C  0.32929890  0.77809574  0.61423292    -0.14900
H1133       H  0.29343440  0.71347342  0.61503355     0.20500
H1134       H  0.21987776  0.82408281  0.61514162     0.16600
H1135       H  0.16334720  0.77971007  0.61626844     0.19100
H1136       H  0.35003356  0.75815152  0.61438838     0.12400
C1137       C  0.10054005  0.55545018  0.77036970     0.16300
C1138       C  0.10029825  0.55522841  0.74298827    -0.32700
C1139       C  0.07531738  0.57691342  0.73046731     0.20700
C1140       C  0.05097784  0.59727782  0.74442172     0.02900
C1141       C  0.05089908  0.59711639  0.77179824    -0.22500
C1142       C  0.07650104  0.57617356  0.78431980     0.12100
S1143       S  0.13123915  0.53414797  0.78931112    -0.06100
C1144       C  0.11213993  0.55429398  0.81623259    -0.09600
C1145       C  0.08292306  0.57543959  0.81055832    -0.26200
S1146       S  0.02475517  0.62386315  0.72546357    -0.03400
C1147       C  0.04741477  0.60793603  0.69848538    -0.16900
C1148       C  0.07322050  0.58276088  0.70418529    -0.14900
H1149       H  0.11974393  0.54004910  0.73191248     0.20500
H1150       H  0.03274693  0.61381434  0.78285743     0.16600
H1151       H  0.06830984  0.59114538  0.82479648     0.19100
H1152       H  0.09096253  0.57071292  0.68990322     0.12400
C1153       C  0.16908909  0.57824687  0.54340263     0.16300
C1154       C  0.19695463  0.55690413  0.53371767    -0.32700
C1155       C  0.21262354  0.56648011  0.50968294     0.20700
C1156       C  0.20068812  0.59568094  0.49587425     0.02900
C1157       C  0.17220578  0.61616761  0.50510786    -0.22500
C1158       C  0.15700470  0.60699792  0.52920845     0.12100
S1159       S  0.14989509  0.57455122  0.57373687    -0.06100
C1160       C  0.12597060  0.61255792  0.56727212    -0.09600
C1161       C  0.13194522  0.62631766  0.54255137    -0.26200
S1162       S  0.22487900  0.60520985  0.46848147    -0.03400
C1163       C  0.25131401  0.56927470  0.47534947    -0.16900
C1164       C  0.24151536  0.55074147  0.49768309    -0.14900
H1165       H  0.20702900  0.53485887  0.54494680     0.20500
H1166       H  0.16337499  0.63933135  0.49453631     0.16600
H1167       H  0.12071072  0.65088273  0.53546735     0.19100
H1168       H  0.25553682  0.52791473  0.50518597     0.12400
C1169       C  0.08337488  0.82330241  0.52089845     0.16300
C1170       C  0.10367099  0.85214122  0.51236970    -0.32700
C1171       C  0.09266823  0.86973541  0.48981394     0.20700
C1172       C  0.06226125  0.85980283  0.47657552     0.02900
C1173       C  0.04079302  0.83198099  0.48596471    -0.22500
C1174       C  0.05237915  0.81365706  0.50823548     0.12100
S1175       S  0.09515985  0.79597320  0.54578185    -0.06100
C1176       C  0.05778149  0.77117513  0.53941263    -0.09600
C1177       C  0.03711522  0.78397905  0.51915266    -0.26200
S1178       S  0.05722631  0.88077657  0.44714171    -0.03400
C1179       C  0.09680952  0.90262190  0.45272111    -0.16900
C1180       C  0.11192039  0.89477374  0.47664790    -0.14900
H1181       H  0.12823155  0.85919637  0.52198025     0.20500
H1182       H  0.01736883  0.82358221  0.47548274     0.16600
H1183       H  0.01274806  0.77181430  0.51245822     0.19100
H1184       H  0.13764057  0.90426915  0.48300193     0.12400
loop_ 
_geom_bond_atom_site_label_1 
_geom_bond_atom_site_label_2 
_geom_bond_distance 
_geom_bond_site_symmetry_2 
_ccdc_geom_bond_type 
O1           Ni7   1.916       .  S
O1           C22   1.268       .  A
O2          Ni25   1.896       .  S
O2           C11   1.265       .  A
O3           Ni7   1.898       .  S
O3          Ni25   1.872       .  S
O3          Ni19   1.892       .  S
O3           H26   0.966       .  S
C4           O21   1.265       .  A
C4           O13   1.270       .  A
C4         C1112   1.472       .  S
O5          Ni24   1.930   1_455  S
O5           C11   1.270       .  A
O6          Ni24   1.887       .  S
O6            C8   1.270       .  A
Ni7          O10   1.929       .  S
Ni7          O12   1.908       .  S
C8           O18   1.288   1_655  A
C8         C1096   1.471       .  S
O9          Ni25   1.925       .  S
O9           C15   1.282       .  A
O10          C15   1.280       .  A
C11        C1176   1.473       .  S
O12          C14   1.265       .  A
O13         Ni24   1.925       .  S
C14          O20   1.270       .  A
C14        C1160   1.474       .  S
C15        C1128   1.469       .  S
H16          O17   0.966       .  S
O17         Ni25   1.951       .  S
O17         Ni19   1.934       .  S
O17         Ni24   1.923   1_455  S
O18         Ni19   1.966       .  S
Ni19         O23   1.928       .  S
Ni19         O21   1.911   1_455  S
O20         Ni25   1.926       .  S
C22          O23   1.275       .  A
C22        C1147   1.476       .  S
O27         Ni33   1.926       .  S
O27          C48   1.274       .  A
O28         Ni51   1.888       .  S
O28          C37   1.264       .  A
O29         Ni33   1.894       .  S
O29         Ni51   1.873       .  S
O29         Ni45   1.900       .  S
O29          H52   0.966       .  S
C30          O47   1.274       .  A
C30          O39   1.277       .  A
C30        C1016   1.473       .  S
O31         Ni50   1.956       .  S
O31          C37   1.277       .  A
O32         Ni50   1.895       .  S
O32          C34   1.270       .  A
Ni33         O36   1.936       .  S
Ni33         O38   1.920       .  S
C34          O44   1.284       .  A
C34        C1032   1.474       .  S
O35         Ni51   1.918       .  S
O35          C41   1.282       .  A
O36          C41   1.283       .  A
C37        C1083   1.477       .  S
O38          C40   1.267       .  A
O39         Ni50   1.933       .  S
C40          O46   1.268       .  A
C40        C1067   1.481       .  S
C41        C1048   1.468       .  S
H42          O43   0.966       .  S
O43         Ni51   1.920       .  S
O43         Ni45   1.914       .  S
O43         Ni50   1.900       .  S
O44         Ni45   1.956       .  S
Ni45         O49   1.925       .  S
Ni45         O47   1.927       .  S
O46         Ni51   1.919       .  S
C48          O49   1.279       .  A
C48        C1144   1.477       .  S
O53         Ni59   1.933       .  S
O53          C74   1.275       .  A
O54         Ni77   1.883       .  S
O54          C63   1.262       .  A
O55         Ni59   1.897       .  S
O55         Ni77   1.868       .  S
O55         Ni71   1.878       .  S
O55          H78   0.967       .  S
C56          O73   1.262       .  A
C56          O65   1.271       .  A
C56         C936   1.479       .  S
O57         Ni76   1.947       .  S
O57          C63   1.274       .  A
O58         Ni76   1.874       .  S
O58          C60   1.272       .  A
Ni59         O62   1.936       .  S
Ni59         O64   1.923       .  S
C60          O70   1.300       .  A
C60         C952   1.491       .  S
O61         Ni77   1.917       .  S
O61          C67   1.280       .  A
O62          C67   1.281       .  A
C63        C1000   1.480       .  S
O64          C66   1.269       .  A
O65         Ni76   1.942       .  S
C66          O72   1.269       .  A
C66         C984   1.482       .  S
C67        C1131   1.468       .  S
H68          O69   0.966       .  S
O69         Ni77   1.951       .  S
O69         Ni71   1.933       .  S
O69         Ni76   1.923       .  S
O70         Ni71   2.004       .  S
Ni71         O75   1.938       .  S
Ni71         O73   1.903       .  S
O72         Ni77   1.925       .  S
C74          O75   1.281       .  A
C74         C968   1.489       .  S
O79         Ni85   1.917       .  S
O79         C100   1.267       .  A
O80        Ni103   1.884       .  S
O80          C89   1.261       .  A
O81         Ni85   1.903       .  S
O81        Ni103   1.875       .  S
O81         Ni97   1.890   1_565  S
O81         H104   0.967       .  S
C82          O99   1.266       .  A
C82          O91   1.272       .  A
C82         C888   1.479       .  S
O83        Ni102   1.946       .  S
O83          C89   1.273   1_545  A
O84        Ni102   1.890       .  S
O84          C86   1.273       .  A
Ni85         O88   1.935       .  S
Ni85         O90   1.903       .  S
C86          O96   1.292       .  A
C86         C872   1.471       .  S
O87        Ni103   1.917       .  S
O87          C93   1.276       .  A
O88          C93   1.280       .  A
C89         C904   1.479       .  S
O90          C92   1.263       .  A
O91        Ni102   1.939       .  S
C92          O98   1.268       .  A
C92         C920   1.471       .  S
C93        C1051   1.469       .  S
H94          O95   0.966       .  S
O95        Ni103   1.947       .  S
O95         Ni97   1.936   1_565  S
O95        Ni102   1.919   1_565  S
O96         Ni97   1.981       .  S
Ni97        O101   1.947       .  S
Ni97         O99   1.912       .  S
O98        Ni103   1.925       .  S
C100        O101   1.279   1_565  A
C100        C971   1.486       .  S
O105       Ni111   1.924       .  S
O105        C126   1.273       .  A
O106       Ni129   1.897       .  S
O106        C115   1.266       .  A
O107       Ni111   1.890       .  S
O107       Ni129   1.877       .  S
O107       Ni123   1.898       .  S
O107        H130   0.967       .  S
C108        O125   1.274       .  A
C108        O117   1.277       .  A
C108        C955   1.484       .  S
O109       Ni128   1.957       .  S
O109        C115   1.277       .  A
O110       Ni128   1.904       .  S
O110        C112   1.272       .  A
Ni111       O114   1.934       .  S
Ni111       O116   1.917       .  S
C112        O122   1.282       .  A
C112       C1115   1.470       .  S
O113       Ni129   1.923       .  S
O113        C119   1.282       .  A
O114        C119   1.283       .  A
C115        C840   1.482       .  S
O116        C118   1.267       .  A
O117       Ni128   1.939       .  S
C118        O124   1.268       .  A
C118        C856   1.477       .  S
C119        C808   1.474       .  S
H120        O121   0.966       .  S
O121       Ni129   1.931       .  S
O121       Ni123   1.925       .  S
O121       Ni128   1.906       .  S
O122       Ni123   1.948       .  S
Ni123       O127   1.938       .  S
Ni123       O125   1.933       .  S
O124       Ni129   1.918       .  S
C126        O127   1.280       .  A
C126        C824   1.484       .  S
O131       Ni137   1.920       .  S
O131        C152   1.268       .  A
O132       Ni155   1.891       .  S
O132        C141   1.263       .  A
O133       Ni137   1.904       .  S
O133       Ni155   1.875       .  S
O133       Ni149   1.891       .  S
O133        H156   0.967       .  S
C134        O151   1.265       .  A
C134        O143   1.270       .  A
C134       C1035   1.480       .  S
O135       Ni154   1.934       .  S
O135        C141   1.270       .  A
O136       Ni154   1.886       .  S
O136        C138   1.271       .  A
Ni137       O140   1.938       .  S
Ni137       O142   1.905       .  S
C138        O148   1.293       .  A
C138        C891   1.471       .  S
O139       Ni155   1.919       .  S
O139        C145   1.279       .  A
O140        C145   1.281       .  A
C141        C776   1.475       .  S
O142        C144   1.263       .  A
O143       Ni154   1.933       .  S
C144        O150   1.269       .  A
C144        C760   1.473       .  S
C145        C795   1.472       .  S
H146        O147   0.966       .  S
O147       Ni155   1.951       .  S
O147       Ni149   1.935       .  S
O147       Ni154   1.921       .  S
O148       Ni149   1.983       .  S
Ni149       O153   1.940       .  S
Ni149       O151   1.911       .  S
O150       Ni155   1.928       .  S
C152        O153   1.278       .  A
C152        C827   1.482       .  S
O157       Ni163   1.927       .  S
O157        C178   1.271       .  A
O158       Ni181   1.911       .  S
O158        C167   1.269       .  A
O159       Ni163   1.905       .  S
O159       Ni181   1.877       .  S
O159       Ni175   1.886       .  S
O159        H182   0.968       .  S
C160        O177   1.264       .  A
C160        O169   1.270       .  A
C160       C1099   1.480       .  S
O161       Ni180   1.931   1_545  S
O161        C167   1.271       .  A
O162       Ni180   1.884   1_545  S
O162        C164   1.271   1_545  A
Ni163       O166   1.930       .  S
Ni163       O168   1.914       .  S
C164        O174   1.293   1_565  A
C164        C939   1.469       .  S
O165       Ni181   1.922       .  S
O165        C171   1.281       .  A
O166        C171   1.280       .  A
C167        C744   1.479       .  S
O168        C170   1.268       .  A
O169       Ni180   1.940       .  S
C170        O176   1.270       .  A
C170        C728   1.474       .  S
C171        C811   1.465       .  S
H172        O173   0.965       .  S
O173       Ni181   1.955       .  S
O173       Ni175   1.927       .  S
O173       Ni180   1.913   1_545  S
O174       Ni175   1.985       .  S
Ni175       O179   1.927       .  S
Ni175       O177   1.914   1_545  S
O176       Ni181   1.924       .  S
C178        O179   1.276       .  A
C178        C712   1.482       .  S
O183       Ni189   1.927       .  S
O183        C204   1.273       .  A
O184       Ni207   1.900       .  S
O184        C193   1.266       .  A
O185       Ni189   1.894       .  S
O185       Ni207   1.872       .  S
O185       Ni201   1.881   1_655  S
O185        H208   0.967       .  S
C186        O203   1.261       .  A
C186        O195   1.269       .  A
C186        C875   1.476       .  S
O187       Ni206   1.939       .  S
O187        C193   1.273   1_455  A
O188       Ni206   1.876       .  S
O188        C190   1.272       .  A
Ni189       O192   1.931       .  S
Ni189       O194   1.920       .  S
C190        O200   1.294       .  A
C190       C1019   1.477       .  S
O191       Ni207   1.925       .  S
O191        C197   1.282       .  A
O192        C197   1.281       .  A
C193        C683   1.479       .  S
O194        C196   1.268       .  A
O195       Ni206   1.942       .  S
C196        O202   1.272       .  A
C196        C696   1.484       .  S
C197        C792   1.473       .  S
H198        O199   0.966       .  S
O199       Ni207   1.960       .  S
O199       Ni201   1.932   1_655  S
O199       Ni206   1.923   1_655  S
O200       Ni201   1.987       .  S
Ni201       O205   1.933       .  S
Ni201       O203   1.905       .  S
O202       Ni207   1.936       .  S
C204        O205   1.277   1_655  A
C204        C715   1.486       .  S
O209       Ni215   1.951       .  S
O209        C230   1.276       .  A
O210       Ni233   1.906       .  S
O210        C219   1.275       .  A
O211       Ni215   1.900       .  S
O211       Ni233   1.905       .  S
O211       Ni227   1.923       .  S
O211        H234   0.966       .  S
C212        O229   1.285       .  A
C212        O221   1.284       .  A
C212        C648   1.474       .  S
O213       Ni232   1.931       .  S
O213        C219   1.278       .  A
O214       Ni232   1.927       .  S
O214        C216   1.270       .  A
Ni215       O218   1.936       .  S
Ni215       O220   1.901       .  S
C216        O226   1.265       .  A
C216        C680   1.481       .  S
O217       Ni233   1.929       .  S
O217        C223   1.273       .  A
O218        C223   1.277       .  A
C219        C667   1.468       .  S
O220        C222   1.271       .  A
O221       Ni232   1.934       .  S
C222        O228   1.282       .  A
C222        C632   1.476       .  S
C223        C616   1.475       .  S
H224        O225   0.967       .  S
O225       Ni233   1.897       .  S
O225       Ni227   1.865       .  S
O225       Ni232   1.890       .  S
O226       Ni227   1.913       .  S
Ni227       O231   1.879       .  S
Ni227       O229   1.929       .  S
O228       Ni233   1.954       .  S
C230        O231   1.262       .  A
C230        C763   1.467       .  S
O235       Ni241   1.929   1_655  S
O235        C256   1.271       .  A
O236       Ni259   1.913       .  S
O236        C245   1.271       .  A
O237       Ni241   1.915   1_655  S
O237       Ni259   1.922       .  S
O237       Ni253   1.955       .  S
O237        H260   0.966       .  S
C238        O255   1.280       .  A
C238        O247   1.279       .  A
C238        C603   1.467       .  S
O239       Ni258   1.922       .  S
O239        C245   1.271       .  A
O240       Ni258   1.915       .  S
O240        C242   1.268       .  A
Ni241       O244   1.946       .  S
Ni241       O246   1.883       .  S
C242        O252   1.272       .  A
C242        C843   1.483       .  S
O243       Ni259   1.910   1_455  S
O243        C249   1.262       .  A
O244        C249   1.271       .  A
C245        C664   1.470       .  S
O246        C248   1.270       .  A
O247       Ni258   1.925       .  S
C248        O254   1.291       .  A
C248        C568   1.474       .  S
C249        C584   1.485       .  S
H250        O251   0.967       .  S
O251       Ni259   1.887       .  S
O251       Ni253   1.873       .  S
O251       Ni258   1.897       .  S
O252       Ni253   1.934       .  S
Ni253       O257   1.895       .  S
Ni253       O255   1.923       .  S
O254       Ni259   1.984   1_455  S
C256        O257   1.266       .  A
C256        C731   1.474       .  S
O261       Ni267   1.949   1_545  S
O261        C282   1.274       .  A
O262       Ni285   1.936       .  S
O262        C271   1.277       .  A
O263       Ni267   1.928   1_545  S
O263       Ni285   1.941       .  S
O263       Ni279   1.946       .  S
O263        H286   0.966       .  S
C264        O281   1.278       .  A
C264        O273   1.281       .  A
C264        C651   1.472       .  S
O265       Ni284   1.925       .  S
O265        C271   1.271       .  A
O266       Ni284   1.909       .  S
O266        C268   1.264       .  A
Ni267       O270   1.932       .  S
Ni267       O272   1.888       .  S
C268        O278   1.269       .  A
C268        C779   1.474       .  S
O269       Ni285   1.917   1_565  S
O269        C275   1.267       .  A
O270        C275   1.272       .  A
C271        C552   1.484       .  S
O272        C274   1.271       .  A
O273       Ni284   1.943       .  S
C274        O280   1.290   1_565  A
C274        C523   1.473       .  S
C275        C539   1.482       .  S
H276        O277   0.966       .  S
O277       Ni285   1.894       .  S
O277       Ni279   1.877       .  S
O277       Ni284   1.909       .  S
O278       Ni279   1.925       .  S
Ni279       O283   1.894       .  S
Ni279       O281   1.916       .  S
O280       Ni285   1.973       .  S
C282        O283   1.263       .  A
C282        C699   1.486       .  S
O287       Ni293   1.935       .  S
O287        C308   1.271       .  A
O288       Ni311   1.922       .  S
O288        C297   1.275       .  A
O289       Ni293   1.923       .  S
O289       Ni311   1.938       .  S
O289       Ni305   1.950       .  S
O289        H312   0.966       .  S
C290        O307   1.280       .  A
C290        O299   1.279       .  A
C290        C600   1.464       .  S
O291       Ni310   1.929       .  S
O291        C297   1.273       .  A
O292       Ni310   1.919       .  S
O292        C294   1.269       .  A
Ni293       O296   1.924       .  S
Ni293       O298   1.879       .  S
C294        O304   1.268       .  A
C294        C747   1.477       .  S
O295       Ni311   1.907       .  S
O295        C301   1.262       .  A
O296        C301   1.269       .  A
C297        C555   1.480       .  S
O298        C300   1.271       .  A
O299       Ni310   1.927       .  S
C300        O306   1.290       .  A
C300        C507   1.476       .  S
C301        C491   1.475       .  S
H302        O303   0.967       .  S
O303       Ni311   1.884       .  S
O303       Ni305   1.873       .  S
O303       Ni310   1.902       .  S
O304       Ni305   1.920       .  S
Ni305       O309   1.895       .  S
Ni305       O307   1.919       .  S
O306       Ni311   1.977       .  S
C308        O309   1.264       .  A
C308        C859   1.476       .  S
O313       Ni319   1.931       .  S
O313        C334   1.271       .  A
O314       Ni337   1.934       .  S
O314        C323   1.278       .  A
O315       Ni319   1.912       .  S
O315       Ni337   1.928       .  S
O315       Ni331   1.952       .  S
O315        H338   0.966       .  S
C316        O333   1.278       .  A
C316        O325   1.282       .  A
C316        C459   1.465       .  S
O317       Ni336   1.913       .  S
O317        C323   1.266       .  A
O318       Ni336   1.905       .  S
O318        C320   1.263       .  A
Ni319       O322   1.936       .  S
Ni319       O324   1.884       .  S
C320        O330   1.271       .  A
C320       C1080   1.477       .  S
O321       Ni337   1.909       .  S
O321        C327   1.263       .  A
O322        C327   1.270       .  A
C323        C472   1.474       .  S
O324        C326   1.271       .  A
O325       Ni336   1.929       .  S
C326        O332   1.296       .  A
C326        C536   1.473       .  S
C327        C635   1.478       .  S
H328        O329   0.967       .  S
O329       Ni337   1.882       .  S
O329       Ni331   1.864       .  S
O329       Ni336   1.889       .  S
O330       Ni331   1.936       .  S
Ni331       O335   1.883       .  S
Ni331       O333   1.911       .  S
O332       Ni337   1.992       .  S
C334        O335   1.261       .  A
C334        C923   1.468       .  S
O339       Ni345   1.941       .  S
O339        C360   1.275       .  A
O340       Ni363   1.930       .  S
O340        C349   1.279       .  A
O341       Ni345   1.897       .  S
O341       Ni363   1.915       .  S
O341       Ni357   1.928       .  S
O341        H364   0.966       .  S
C342        O359   1.284       .  A
C342        O351   1.282       .  A
C342        C443   1.465       .  S
O343       Ni362   1.919       .  S
O343        C349   1.271       .  A
O344       Ni362   1.911       .  S
O344        C346   1.264       .  A
Ni345       O348   1.932       .  S
Ni345       O350   1.906       .  S
C346        O356   1.270       .  A
C346       C1003   1.479       .  S
O347       Ni363   1.918       .  S
O347        C353   1.270       .  A
O348        C353   1.275       .  A
C349        C475   1.475       .  S
O350        C352   1.273       .  A
O351       Ni362   1.931       .  S
C352        O358   1.287       .  A
C352        C587   1.481       .  S
C353        C504   1.470       .  S
H354        O355   0.966       .  S
O355       Ni363   1.893       .  S
O355       Ni357   1.873       .  S
O355       Ni362   1.884       .  S
O356       Ni357   1.930       .  S
Ni357       O361   1.897       .  S
Ni357       O359   1.923       .  S
O358       Ni363   1.962       .  S
C360        O361   1.268       .  A
C360       C1163   1.469       .  S
O365       Ni371   1.942   1_455  S
O365        C386   1.274       .  A
O366       Ni389   1.913       .  S
O366        C375   1.272       .  A
O367       Ni371   1.918   1_455  S
O367       Ni389   1.923       .  S
O367       Ni383   1.952       .  S
O367        H390   0.966       .  S
C368        O385   1.280       .  A
C368        O377   1.280       .  A
C368        C456   1.461       .  S
O369       Ni388   1.921       .  S
O369        C375   1.270       .  A
O370       Ni388   1.907       .  S
O370        C372   1.265       .  A
Ni371       O374   1.953       .  S
Ni371       O376   1.879   1_655  S
C372        O382   1.272       .  A
C372        C907   1.477       .  S
O373       Ni389   1.906   1_655  S
O373        C379   1.262       .  A
O374        C379   1.272       .  A
C375        C427   1.466       .  S
O376        C378   1.271       .  A
O377       Ni388   1.928       .  S
C378        O384   1.292       .  A
C378        C619   1.476   1_455  S
C379        C520   1.484       .  S
H380        O381   0.967       .  S
O381       Ni389   1.883       .  S
O381       Ni383   1.870       .  S
O381       Ni388   1.897       .  S
O382       Ni383   1.931       .  S
Ni383       O387   1.898       .  S
Ni383       O385   1.918       .  S
O384       Ni389   1.987       .  S
C386        O387   1.267       .  A
C386       C1064   1.482       .  S
O391       Ni397   1.954       .  S
O391        C412   1.278   1_545  A
O392       Ni415   1.909       .  S
O392        C401   1.274   1_545  A
O393       Ni397   1.894   1_565  S
O393       Ni415   1.907   1_565  S
O393       Ni409   1.923       .  S
O393        H416   0.966       .  S
C394        O411   1.284       .  A
C394        O403   1.282       .  A
C394        C440   1.465       .  S
O395       Ni414   1.925       .  S
O395        C401   1.275       .  A
O396       Ni414   1.922       .  S
O396        C398   1.267       .  A
Ni397       O400   1.942       .  S
Ni397       O402   1.900       .  S
C398        O408   1.266       .  A
C398       C1179   1.479       .  S
O399       Ni415   1.920       .  S
O399        C405   1.270       .  A
O400        C405   1.278       .  A
C401        C424   1.468       .  S
O402        C404   1.272       .  A
O403       Ni414   1.931       .  S
C404        O410   1.282       .  A
C404        C488   1.477       .  S
C405        C571   1.474       .  S
H406        O407   0.967       .  S
O407       Ni415   1.892   1_565  S
O407       Ni409   1.869       .  S
O407       Ni414   1.888       .  S
O408       Ni409   1.915       .  S
Ni409       O413   1.887       .  S
Ni409       O411   1.922       .  S
O410       Ni415   1.955       .  S
C412        O413   1.265       .  A
C412        C987   1.474       .  S
C417        S423   1.712   1_565  A
C417        C422   1.386       .  A
C417        C418   1.400       .  A
C418        C419   1.404       .  A
C418        H429   1.083   1_565  S
C419        C428   1.365       .  A
C419        C420   1.387       .  A
C420        S426   1.708       .  A
C420        C421   1.397       .  A
C421        C422   1.400       .  A
C421        H430   1.083       .  S
C422        C425   1.362       .  A
S423        C424   1.721   1_545  A
C424        C425   1.386       .  A
C425        H431   1.083       .  S
S426        C427   1.719       .  A
C427        C428   1.388       .  A
C428        H432   1.083       .  S
C433        S439   1.700       .  A
C433        C438   1.388       .  A
C433        C434   1.401       .  A
C434        C435   1.400       .  A
C434        H445   1.083       .  S
C435        C444   1.372       .  A
C435        C436   1.388       .  A
C436        S442   1.700       .  A
C436        C437   1.400       .  A
C437        C438   1.399       .  A
C437        H446   1.083       .  S
C438        C441   1.372       .  A
S439        C440   1.723       .  A
C440        C441   1.383       .  A
C441        H447   1.083       .  S
S442        C443   1.723       .  A
C443        C444   1.384       .  A
C444        H448   1.083       .  S
C449        S455   1.708       .  A
C449        C454   1.387       .  A
C449        C450   1.396       .  A
C450        C451   1.399       .  A
C450        H461   1.083       .  S
C451        C460   1.361       .  A
C451        C452   1.387       .  A
C452        S458   1.710       .  A
C452        C453   1.400       .  A
C453        C454   1.403       .  A
C453        H462   1.083       .  S
C454        C457   1.364       .  A
S455        C456   1.718       .  A
C456        C457   1.385       .  A
C457        H463   1.083       .  S
S458        C459   1.723       .  A
C459        C460   1.383       .  A
C460        H464   1.083       .  S
C465        S471   1.700       .  A
C465        C470   1.387       .  A
C465        C466   1.405       .  A
C466        C467   1.402       .  A
C466        H477   1.083       .  S
C467        C476   1.379       .  A
C467        C468   1.388       .  A
C468        S474   1.697       .  A
C468        C469   1.403       .  A
C469        C470   1.400       .  A
C469        H478   1.083       .  S
C470        C473   1.377       .  A
S471        C472   1.728       .  A
C472        C473   1.385       .  A
C473        H479   1.083       .  S
S474        C475   1.727       .  A
C475        C476   1.386       .  A
C476        H480   1.083       .  S
C481        S487   1.723       .  A
C481        C486   1.385       .  A
C481        C482   1.412       .  A
C482        C483   1.414       .  A
C482        H493   1.083       .  S
C483        C492   1.380       .  A
C483        C484   1.387       .  A
C484        S490   1.701       .  A
C484        C485   1.394       .  A
C485        C486   1.397       .  A
C485        H494   1.083       .  S
C486        C489   1.363       .  A
S487        C488   1.730       .  A
C488        C489   1.386       .  A
C489        H495   1.084       .  S
S490        C491   1.717       .  A
C491        C492   1.395       .  A
C492        H496   1.083       .  S
C497        S503   1.710       .  A
C497        C502   1.387       .  A
C497        C498   1.398       .  A
C498        C499   1.402       .  A
C498        H509   1.083       .  S
C499        C508   1.364       .  A
C499        C500   1.384       .  A
C500        S506   1.722       .  A
C500        C501   1.409       .  A
C501        C502   1.411       .  A
C501        H510   1.083       .  S
C502        C505   1.375       .  A
S503        C504   1.717       .  A
C504        C505   1.390       .  A
C505        H511   1.083       .  S
S506        C507   1.728       .  A
C507        C508   1.389       .  A
C508        H512   1.084       .  S
C513        S519   1.713       .  A
C513        C518   1.386       .  A
C513        C514   1.404       .  A
C514        C515   1.406       .  A
C514        H525   1.083       .  S
C515        C524   1.374       .  A
C515        C516   1.385       .  A
C516        S522   1.715   1_565  A
C516        C517   1.408       .  A
C517        C518   1.408       .  A
C517        H526   1.083       .  S
C518        C521   1.378       .  A
S519        C520   1.725       .  A
C520        C521   1.392       .  A
C521        H527   1.083       .  S
S522        C523   1.726   1_545  A
C523        C524   1.391       .  A
C524        H528   1.084       .  S
C529        S535   1.719       .  A
C529        C534   1.384       .  A
C529        C530   1.412       .  A
C530        C531   1.412       .  A
C530        H541   1.083       .  S
C531        C540   1.383       .  A
C531        C532   1.386       .  A
C532        S538   1.705       .  A
C532        C533   1.400       .  A
C533        C534   1.402       .  A
C533        H542   1.083       .  S
C534        C537   1.371       .  A
S535        C536   1.731       .  A
C536        C537   1.388       .  A
C537        H543   1.084       .  S
S538        C539   1.722       .  A
C539        C540   1.395       .  A
C540        H544   1.083       .  S
C545        S551   1.719       .  A
C545        C550   1.385       .  A
C545        C546   1.405       .  A
C546        C547   1.408       .  A
C546        H557   1.083       .  S
C547        C556   1.372       .  A
C547        C548   1.386       .  A
C548        S554   1.715       .  A
C548        C549   1.403       .  A
C549        C550   1.406       .  A
C549        H558   1.083       .  S
C550        C553   1.370       .  A
S551        C552   1.725       .  A
C552        C553   1.392       .  A
C553        H559   1.083       .  S
S554        C555   1.723       .  A
C555        C556   1.391       .  A
C556        H560   1.083       .  S
C561        S567   1.716       .  A
C561        C566   1.385       .  A
C561        C562   1.407       .  A
C562        C563   1.408       .  A
C562        H573   1.083       .  S
C563        C572   1.376       .  A
C563        C564   1.387       .  A
C564        S570   1.712       .  A
C564        C565   1.402       .  A
C565        C566   1.405       .  A
C565        H574   1.083       .  S
C566        C569   1.370       .  A
S567        C568   1.725       .  A
C568        C569   1.391       .  A
C569        H575   1.084   1_455  S
S570        C571   1.720       .  A
C571        C572   1.389       .  A
C572        H576   1.083       .  S
C577        S583   1.709       .  A
C577        C582   1.386       .  A
C577        C578   1.402       .  A
C578        C579   1.404       .  A
C578        H589   1.083       .  S
C579        C588   1.371       .  A
C579        C580   1.385       .  A
C580        S586   1.721       .  A
C580        C581   1.411       .  A
C581        C582   1.412       .  A
C581        H590   1.083       .  S
C582        C585   1.381       .  A
S583        C584   1.723       .  A
C584        C585   1.394       .  A
C585        H591   1.083       .  S
S586        C587   1.728       .  A
C587        C588   1.391       .  A
C588        H592   1.084       .  S
C593        S599   1.701       .  A
C593        C598   1.388       .  A
C593        C594   1.402       .  A
C594        C595   1.401       .  A
C594        H605   1.083       .  S
C595        C604   1.374       .  A
C595        C596   1.388       .  A
C596        S602   1.696       .  A
C596        C597   1.399       .  A
C597        C598   1.397       .  A
C597        H606   1.083       .  S
C598        C601   1.371       .  A
S599        C600   1.724       .  A
C600        C601   1.382       .  A
C601        H607   1.083       .  S
S602        C603   1.723       .  A
C603        C604   1.385       .  A
C604        H608   1.083       .  S
C609        S615   1.709       .  A
C609        C614   1.387       .  A
C609        C610   1.398       .  A
C610        C611   1.401       .  A
C610        H621   1.083   1_655  S
C611        C620   1.366   1_655  A
C611        C612   1.384       .  A
C612        S618   1.721       .  A
C612        C613   1.410       .  A
C613        C614   1.412       .  A
C613        H622   1.083       .  S
C614        C617   1.379       .  A
S615        C616   1.717       .  A
C616        C617   1.393       .  A
C617        H623   1.083       .  S
S618        C619   1.728       .  A
C619        C620   1.389   1_655  A
C620        H624   1.084       .  S
C625        S631   1.720       .  A
C625        C630   1.385       .  A
C625        C626   1.409       .  A
C626        C627   1.410       .  A
C626        H637   1.083       .  S
C627        C636   1.378       .  A
C627        C628   1.387       .  A
C628        S634   1.704       .  A
C628        C629   1.398       .  A
C629        C630   1.400       .  A
C629        H638   1.083       .  S
C630        C633   1.366       .  A
S631        C632   1.727       .  A
C632        C633   1.388       .  A
C633        H639   1.084       .  S
S634        C635   1.722       .  A
C635        C636   1.392       .  A
C636        H640   1.083       .  S
C641        S647   1.714       .  A
C641        C646   1.386       .  A
C641        C642   1.404       .  A
C642        C643   1.406       .  A
C642        H653   1.083       .  S
C643        C652   1.372       .  A
C643        C644   1.387       .  A
C644        S650   1.710       .  A
C644        C645   1.401       .  A
C645        C646   1.403       .  A
C645        H654   1.083       .  S
C646        C649   1.369       .  A
S647        C648   1.723       .  A
C648        C649   1.388       .  A
C649        H655   1.083       .  S
S650        C651   1.721       .  A
C651        C652   1.389       .  A
C652        H656   1.083       .  S
C657        S663   1.711       .  A
C657        C662   1.387       .  A
C657        C658   1.400       .  A
C658        C659   1.403       .  A
C658        H669   1.083       .  S
C659        C668   1.366       .  A
C659        C660   1.387       .  A
C660        S666   1.709       .  A
C660        C661   1.399       .  A
C661        C662   1.402       .  A
C661        H670   1.083       .  S
C662        C665   1.365       .  A
S663        C664   1.722       .  A
C664        C665   1.387       .  A
C665        H671   1.083       .  S
S666        C667   1.721       .  A
C667        C668   1.387       .  A
C668        H672   1.083       .  S
C673        S679   1.702       .  A
C673        C678   1.387       .  A
C673        C674   1.400       .  A
C674        C675   1.400       .  A
C674        H685   1.083   1_554  S
C675        C684   1.369   1_554  A
C675        C676   1.386       .  A
C676        S682   1.719       .  A
C676        C677   1.410       .  A
C677        C678   1.410       .  A
C677        H686   1.083       .  S
C678        C681   1.381       .  A
S679        C680   1.726       .  A
C680        C681   1.393       .  A
C681        H687   1.083       .  S
S682        C683   1.727   1_554  A
C683        C684   1.387       .  A
C684        H688   1.084       .  S
C689        S695   1.720       .  A
C689        C694   1.385       .  A
C689        C690   1.412       .  A
C690        C691   1.412   1_556  A
C690        H701   1.083       .  S
C691        C700   1.384       .  A
C691        C692   1.387       .  A
C692        S698   1.702       .  A
C692        C693   1.399       .  A
C693        C694   1.400   1_554  A
C693        H702   1.083       .  S
C694        C697   1.370       .  A
S695        C696   1.730       .  A
C696        C697   1.387       .  A
C697        H703   1.083       .  S
S698        C699   1.725       .  A
C699        C700   1.395       .  A
C700        H704   1.083       .  S
C705        S711   1.714       .  A
C705        C710   1.386       .  A
C705        C706   1.402       .  A
C706        C707   1.405       .  A
C706        H717   1.083       .  S
C707        C716   1.370       .  A
C707        C708   1.385       .  A
C708        S714   1.721       .  A
C708        C709   1.408       .  A
C709        C710   1.411       .  A
C709        H718   1.083       .  S
C710        C713   1.376       .  A
S711        C712   1.722       .  A
C712        C713   1.394       .  A
C713        H719   1.083       .  S
S714        C715   1.728       .  A
C715        C716   1.390       .  A
C716        H720   1.083       .  S
C721        S727   1.700       .  A
C721        C726   1.387       .  A
C721        C722   1.397       .  A
C722        C723   1.398       .  A
C722        H733   1.083       .  S
C723        C732   1.365       .  A
C723        C724   1.386       .  A
C724        S730   1.713       .  A
C724        C725   1.406       .  A
C725        C726   1.407       .  A
C725        H734   1.083       .  S
C726        C729   1.376       .  A
S727        C728   1.723       .  A
C728        C729   1.391       .  A
C729        H735   1.083       .  S
S730        C731   1.726       .  A
C731        C732   1.386       .  A
C732        H736   1.084       .  S
C737        S743   1.714       .  A
C737        C742   1.386       .  A
C737        C738   1.408       .  A
C738        C739   1.408       .  A
C738        H749   1.083       .  S
C739        C748   1.378       .  A
C739        C740   1.387       .  A
C740        S746   1.702       .  A
C740        C741   1.400       .  A
C741        C742   1.401       .  A
C741        H750   1.083       .  S
C742        C745   1.371       .  A
S743        C744   1.727       .  A
C744        C745   1.387       .  A
C745        H751   1.083       .  S
S746        C747   1.724       .  A
C747        C748   1.391       .  A
C748        H752   1.083       .  S
C753        S759   1.712       .  A
C753        C758   1.387       .  A
C753        C754   1.407       .  A
C754        C755   1.407   1_556  A
C754        H765   1.083       .  S
C755        C764   1.377       .  A
C755        C756   1.388       .  A
C756        S762   1.694       .  A
C756        C757   1.394       .  A
C757        C758   1.395   1_554  A
C757        H766   1.083       .  S
C758        C761   1.365       .  A
S759        C760   1.727       .  A
C760        C761   1.383       .  A
C761        H767   1.084       .  S
S762        C763   1.720       .  A
C763        C764   1.388       .  A
C764        H768   1.083       .  S
C769        S775   1.698   1_554  A
C769        C774   1.387       .  A
C769        C770   1.395       .  A
C770        C771   1.396       .  A
C770        H781   1.083       .  S
C771        C780   1.364       .  A
C771        C772   1.386       .  A
C772        S778   1.715       .  A
C772        C773   1.408       .  A
C773        C774   1.409       .  A
C773        H782   1.083       .  S
C774        C777   1.378       .  A
S775        C776   1.722       .  A
C776        C777   1.392   1_556  A
C777        H783   1.083       .  S
S778        C779   1.728       .  A
C779        C780   1.384       .  A
C780        H784   1.084       .  S
C785        S791   1.717       .  A
C785        C790   1.386       .  A
C785        C786   1.404       .  A
C786        C787   1.407       .  A
C786        H797   1.083       .  S
C787        C796   1.371       .  A
C787        C788   1.387       .  A
C788        S794   1.709       .  A
C788        C789   1.398       .  A
C789        C790   1.401       .  A
C789        H798   1.083       .  S
C790        C793   1.364       .  A
S791        C792   1.724       .  A
C792        C793   1.387       .  A
C793        H799   1.083       .  S
S794        C795   1.720       .  A
C795        C796   1.389       .  A
C796        H800   1.083       .  S
C801        S807   1.712       .  A
C801        C806   1.386       .  A
C801        C802   1.401       .  A
C802        C803   1.404       .  A
C802        H813   1.083       .  S
C803        C812   1.367       .  A
C803        C804   1.387       .  A
C804        S810   1.711       .  A
C804        C805   1.400       .  A
C805        C806   1.403       .  A
C805        H814   1.083       .  S
C806        C809   1.367       .  A
S807        C808   1.723       .  A
C808        C809   1.388       .  A
C809        H815   1.083       .  S
S810        C811   1.719       .  A
C811        C812   1.387       .  A
C812        H816   1.084       .  S
C817        S823   1.701       .  A
C817        C822   1.387       .  A
C817        C818   1.405       .  A
C818        C819   1.402       .  A
C818        H829   1.083       .  S
C819        C828   1.382       .  A
C819        C820   1.387       .  A
C820        S826   1.702       .  A
C820        C821   1.408       .  A
C821        C822   1.405       .  A
C821        H830   1.083       .  S
C822        C825   1.384       .  A
S823        C824   1.728       .  A
C824        C825   1.390       .  A
C825        H831   1.083       .  S
S826        C827   1.730       .  A
C827        C828   1.388       .  A
C828        H832   1.083       .  S
C833        S839   1.704       .  A
C833        C838   1.387       .  A
C833        C834   1.401       .  A
C834        C835   1.401       .  A
C834        H845   1.083       .  S
C835        C844   1.372       .  A
C835        C836   1.386       .  A
C836        S842   1.715       .  A
C836        C837   1.410       .  A
C837        C838   1.410       .  A
C837        H846   1.083       .  S
C838        C841   1.383       .  A
S839        C840   1.724       .  A
C840        C841   1.392       .  A
C841        H847   1.083       .  S
S842        C843   1.729       .  A
C843        C844   1.388       .  A
C844        H848   1.083       .  S
C849        S855   1.716       .  A
C849        C854   1.386       .  A
C849        C850   1.408       .  A
C850        C851   1.409       .  A
C850        H861   1.083       .  S
C851        C860   1.378       .  A
C851        C852   1.387       .  A
C852        S858   1.701       .  A
C852        C853   1.397       .  A
C853        C854   1.398       .  A
C853        H862   1.083       .  S
C854        C857   1.365       .  A
S855        C856   1.727       .  A
C856        C857   1.386       .  A
C857        H863   1.084       .  S
S858        C859   1.722       .  A
C859        C860   1.391       .  A
C860        H864   1.083       .  S
C865        S871   1.712       .  A
C865        C870   1.385       .  A
C865        C866   1.407       .  A
C866        C867   1.407       .  A
C866        H877   1.083       .  S
C867        C876   1.377       .  A
C867        C868   1.387       .  A
C868        S874   1.710       .  A
C868        C869   1.404       .  A
C869        C870   1.405       .  A
C869        H878   1.083       .  S
C870        C873   1.374       .  A
S871        C872   1.726       .  A
C872        C873   1.390       .  A
C873        H879   1.083       .  S
S874        C875   1.722       .  A
C875        C876   1.389       .  A
C876        H880   1.083       .  S
C881        S887   1.705       .  A
C881        C886   1.386       .  A
C881        C882   1.400       .  A
C882        C883   1.402       .  A
C882        H893   1.083       .  S
C883        C892   1.371       .  A
C883        C884   1.384       .  A
C884        S890   1.716       .  A
C884        C885   1.410       .  A
C885        C886   1.410       .  A
C885        H894   1.083       .  S
C886        C889   1.380       .  A
S887        C888   1.722       .  A
C888        C889   1.392       .  A
C889        H895   1.083       .  S
S890        C891   1.729       .  A
C891        C892   1.389       .  A
C892        H896   1.084       .  S
C897        S903   1.696   1_554  A
C897        C902   1.387       .  A
C897        C898   1.396       .  A
C898        C899   1.396       .  A
C898        H909   1.083       .  S
C899        C908   1.367       .  A
C899        C900   1.386       .  A
C900        S906   1.715       .  A
C900        C901   1.410       .  A
C901        C902   1.410       .  A
C901        H910   1.083       .  S
C902        C905   1.382       .  A
S903        C904   1.724       .  A
C904        C905   1.392   1_556  A
C905        H911   1.083   1_565  S
S906        C907   1.730       .  A
C907        C908   1.384       .  A
C908        H912   1.083       .  S
C913        S919   1.707       .  A
C913        C918   1.387       .  A
C913        C914   1.404       .  A
C914        C915   1.403   1_556  A
C914        H925   1.083       .  S
C915        C924   1.374       .  A
C915        C916   1.387       .  A
C916        S922   1.697       .  A
C916        C917   1.397       .  A
C917        C918   1.397   1_554  A
C917        H926   1.083       .  S
C918        C921   1.366       .  A
S919        C920   1.725       .  A
C920        C921   1.385       .  A
C921        H927   1.084       .  S
S922        C923   1.723       .  A
C923        C924   1.387       .  A
C924        H928   1.083       .  S
C929        S935   1.712       .  A
C929        C934   1.386       .  A
C929        C930   1.403       .  A
C930        C931   1.405       .  A
C930        H941   1.083       .  S
C931        C940   1.373       .  A
C931        C932   1.384       .  A
C932        S938   1.713   1_565  A
C932        C933   1.406       .  A
C933        C934   1.407       .  A
C933        H942   1.083       .  S
C934        C937   1.376       .  A
S935        C936   1.723       .  A
C936        C937   1.390       .  A
C937        H943   1.083       .  S
S938        C939   1.727   1_545  A
C939        C940   1.390       .  A
C940        H944   1.084       .  S
C945        S951   1.729       .  A
C945        C950   1.383       .  A
C945        C946   1.414       .  A
C946        C947   1.416       .  A
C946        H957   1.082       .  S
C947        C956   1.383       .  A
C947        C948   1.386       .  A
C948        S954   1.712       .  A
C948        C949   1.400       .  A
C949        C950   1.404       .  A
C949        H958   1.083       .  S
C950        C953   1.367       .  A
S951        C952   1.730       .  A
C952        C953   1.394       .  A
C953        H959   1.084       .  S
S954        C955   1.721       .  A
C955        C956   1.395       .  A
C956        H960   1.083       .  S
C961        S967   1.706       .  A
C961        C966   1.387       .  A
C961        C962   1.409       .  A
C962        C963   1.406       .  A
C962        H973   1.083   1_565  S
C963        C972   1.385       .  A
C963        C964   1.387       .  A
C964        S970   1.703       .  A
C964        C965   1.408       .  A
C965        C966   1.405       .  A
C965        H974   1.083       .  S
C966        C969   1.384       .  A
S967        C968   1.730       .  A
C968        C969   1.391       .  A
C969        H975   1.083       .  S
S970        C971   1.730       .  A
C971        C972   1.390       .  A
C972        H976   1.083   1_565  S
C977        S983   1.717       .  A
C977        C982   1.386       .  A
C977        C978   1.409       .  A
C978        C979   1.409       .  A
C978        H989   1.083   1_565  S
C979        C988   1.379       .  A
C979        C980   1.387       .  A
C980        S986   1.701       .  A
C980        C981   1.398       .  A
C981        C982   1.400       .  A
C981        H990   1.083       .  S
C982        C985   1.368       .  A
S983        C984   1.728       .  A
C984        C985   1.388       .  A
C985        H991   1.084       .  S
S986        C987   1.723       .  A
C987        C988   1.389       .  A
C988        H992   1.083   1_565  S
C993        S999   1.694       .  A
C993        C998   1.387       .  A
C993        C994   1.395       .  A
C994        C995   1.395       .  A
C994       H1005   1.083       .  S
C995       C1004   1.366       .  A
C995        C996   1.385       .  A
C996       S1002   1.717       .  A
C996        C997   1.412       .  A
C997        C998   1.412       .  A
C997       H1006   1.083       .  S
C998       C1001   1.384       .  A
S999       C1000   1.724       .  A
C1000      C1001   1.394       .  A
C1001      H1007   1.083       .  S
S1002      C1003   1.731       .  A
C1003      C1004   1.384       .  A
C1004      H1008   1.083       .  S
C1009      S1015   1.708       .  A
C1009      C1014   1.387       .  A
C1009      C1010   1.397       .  A
C1010      C1011   1.400       .  A
C1010      H1021   1.083       .  S
C1011      C1020   1.364       .  A
C1011      C1012   1.384       .  A
C1012      S1018   1.724       .  A
C1012      C1013   1.411       .  A
C1013      C1014   1.413       .  A
C1013      H1022   1.083       .  S
C1014      C1017   1.378       .  A
S1015      C1016   1.716       .  A
C1016      C1017   1.393       .  A
C1017      H1023   1.083       .  S
S1018      C1019   1.729       .  A
C1019      C1020   1.388       .  A
C1020      H1024   1.084       .  S
C1025      S1031   1.718       .  A
C1025      C1030   1.385       .  A
C1025      C1026   1.407       .  A
C1026      C1027   1.409       .  A
C1026      H1037   1.083       .  S
C1027      C1036   1.377       .  A
C1027      C1028   1.386       .  A
C1028      S1034   1.706       .  A
C1028      C1029   1.399       .  A
C1029      C1030   1.402       .  A
C1029      H1038   1.083       .  S
C1030      C1033   1.365       .  A
S1031      C1032   1.725       .  A
C1032      C1033   1.390       .  A
C1033      H1039   1.084       .  S
S1034      C1035   1.724       .  A
C1035      C1036   1.391       .  A
C1036      H1040   1.083       .  S
C1041      S1047   1.708       .  A
C1041      C1046   1.387       .  A
C1041      C1042   1.398       .  A
C1042      C1043   1.400       .  A
C1042      H1053   1.083       .  S
C1043      C1052   1.365       .  A
C1043      C1044   1.387       .  A
C1044      S1050   1.714       .  A
C1044      C1045   1.404       .  A
C1045      C1046   1.406       .  A
C1045      H1054   1.083       .  S
C1046      C1049   1.369       .  A
S1047      C1048   1.719       .  A
C1048      C1049   1.389       .  A
C1049      H1055   1.083       .  S
S1050      C1051   1.724       .  A
C1051      C1052   1.384       .  A
C1052      H1056   1.083       .  S
C1057      S1063   1.700       .  A
C1057      C1062   1.387       .  A
C1057      C1058   1.396       .  A
C1058      C1059   1.397   1_554  A
C1058      H1069   1.083       .  S
C1059      C1068   1.364       .  A
C1059      C1060   1.385       .  A
C1060      S1066   1.722       .  A
C1060      C1061   1.412       .  A
C1061      C1062   1.413   1_556  A
C1061      H1070   1.083       .  S
C1062      C1065   1.382       .  A
S1063      C1064   1.723       .  A
C1064      C1065   1.395       .  A
C1065      H1071   1.083       .  S
S1066      C1067   1.730       .  A
C1067      C1068   1.386       .  A
C1068      H1072   1.084       .  S
C1073      S1079   1.712       .  A
C1073      C1078   1.386       .  A
C1073      C1074   1.409       .  A
C1074      C1075   1.408       .  A
C1074      H1085   1.083       .  S
C1075      C1084   1.381   1_554  A
C1075      C1076   1.387   1_554  A
C1076      S1082   1.698       .  A
C1076      C1077   1.399   1_556  A
C1077      C1078   1.398       .  A
C1077      H1086   1.083       .  S
C1078      C1081   1.370       .  A
S1079      C1080   1.728       .  A
C1080      C1081   1.385       .  A
C1081      H1087   1.083       .  S
S1082      C1083   1.723       .  A
C1083      C1084   1.391       .  A
C1084      H1088   1.083       .  S
C1089      S1095   1.715       .  A
C1089      C1094   1.385       .  A
C1089      C1090   1.408       .  A
C1090      C1091   1.409       .  A
C1090      H1101   1.083       .  S
C1091      C1100   1.379       .  A
C1091      C1092   1.387       .  A
C1092      S1098   1.707       .  A
C1092      C1093   1.402       .  A
C1093      C1094   1.403       .  A
C1093      H1102   1.083       .  S
C1094      C1097   1.372       .  A
S1095      C1096   1.726       .  A
C1096      C1097   1.389       .  A
C1097      H1103   1.084       .  S
S1098      C1099   1.723       .  A
C1099      C1100   1.391       .  A
C1100      H1104   1.083       .  S
C1105      S1111   1.703       .  A
C1105      C1110   1.387       .  A
C1105      C1106   1.399       .  A
C1106      C1107   1.400       .  A
C1106      H1117   1.083       .  S
C1107      C1116   1.369       .  A
C1107      C1108   1.385       .  A
C1108      S1114   1.715       .  A
C1108      C1109   1.409       .  A
C1109      C1110   1.409       .  A
C1109      H1118   1.083       .  S
C1110      C1113   1.379       .  A
S1111      C1112   1.719       .  A
C1112      C1113   1.390       .  A
C1113      H1119   1.083       .  S
S1114      C1115   1.726       .  A
C1115      C1116   1.387       .  A
C1116      H1120   1.084       .  S
C1121      S1127   1.702       .  A
C1121      C1126   1.388       .  A
C1121      C1122   1.403       .  A
C1122      C1123   1.402       .  A
C1122      H1133   1.083       .  S
C1123      C1132   1.373       .  A
C1123      C1124   1.388       .  A
C1124      S1130   1.701       .  A
C1124      C1125   1.401       .  A
C1125      C1126   1.400       .  A
C1125      H1134   1.083       .  S
C1126      C1129   1.373       .  A
S1127      C1128   1.725       .  A
C1128      C1129   1.384       .  A
C1129      H1135   1.083       .  S
S1130      C1131   1.723       .  A
C1131      C1132   1.386       .  A
C1132      H1136   1.083       .  S
C1137      S1143   1.716       .  A
C1137      C1142   1.386       .  A
C1137      C1138   1.402       .  A
C1138      C1139   1.406       .  A
C1138      H1149   1.083       .  S
C1139      C1148   1.367       .  A
C1139      C1140   1.386       .  A
C1140      S1146   1.716       .  A
C1140      C1141   1.402       .  A
C1141      C1142   1.405       .  A
C1141      H1150   1.083       .  S
C1142      C1145   1.368       .  A
S1143      C1144   1.722       .  A
C1144      C1145   1.390       .  A
C1145      H1151   1.083       .  S
S1146      C1147   1.722       .  A
C1147      C1148   1.391       .  A
C1148      H1152   1.083       .  S
C1153      S1159   1.711       .  A
C1153      C1158   1.386       .  A
C1153      C1154   1.406       .  A
C1154      C1155   1.407       .  A
C1154      H1165   1.083       .  S
C1155      C1164   1.375       .  A
C1155      C1156   1.388       .  A
C1156      S1162   1.702       .  A
C1156      C1157   1.398       .  A
C1157      C1158   1.399       .  A
C1157      H1166   1.083       .  S
C1158      C1161   1.367       .  A
S1159      C1160   1.727       .  A
C1160      C1161   1.385       .  A
C1161      H1167   1.083       .  S
S1162      C1163   1.720       .  A
C1163      C1164   1.388       .  A
C1164      H1168   1.083       .  S
C1169      S1175   1.703       .  A
C1169      C1174   1.387       .  A
C1169      C1170   1.397       .  A
C1170      C1171   1.400       .  A
C1170      H1181   1.083       .  S
C1171      C1180   1.365       .  A
C1171      C1172   1.386       .  A
C1172      S1178   1.716       .  A
C1172      C1173   1.407       .  A
C1173      C1174   1.408       .  A
C1173      H1182   1.083       .  S
C1174      C1177   1.376       .  A
S1175      C1176   1.721       .  A
C1176      C1177   1.390       .  A
C1177      H1183   1.083       .  S
S1178      C1179   1.727       .  A
C1179      C1180   1.388       .  A
C1180      H1184   1.084       .  S
