geometry optimzed in LAMMPS
_audit_creation_date              2020-12-01 
_audit_creation_method            'lammps2cif' 
_symmetry_space_group_name_H-M    'P1' 
_symmetry_Int_Tables_number       1 
_symmetry_cell_setting            triclinic 
loop_ 
_symmetry_equiv_pos_as_xyz 
  x,y,z 
_cell_length_a                    47.38009938 
_cell_length_b                    47.85277022261515 
_cell_length_c                    30.66218253873017 
_cell_angle_alpha                 89.98424551943194 
_cell_angle_beta                  90.37847515005039 
_cell_angle_gamma                 120.01492328831162 
loop_ 
_atom_site_label 
_atom_site_type_symbol 
_atom_site_fract_x 
_atom_site_fract_y 
_atom_site_fract_z 
_atom_site_charge 
O1          O  0.81841990  0.28222343  0.33367507    -0.86200
O2          O  0.86534967  0.26821406  0.35213983    -0.83300
C3          C  0.88668288  0.26051850  0.34720809     0.97300
O4          O  0.90183418  0.26581302  0.31114905    -0.83300
O5          O  0.85906631  0.22572437  0.24831764    -0.85900
C6          C  0.83774511  0.21476242  0.21875237     1.01800
O7          O  0.82337815  0.23074892  0.20873538    -0.78700
O8          O  0.79633844  0.24281140  0.28532785    -0.78900
C9          C  0.79449300  0.25523950  0.32087357     1.01700
O10         O  0.86874967  0.33933107  0.28738250    -0.86200
O11         O  0.91743771  0.32758283  0.31423893    -0.83300
C12         C  0.93349993  0.33343131  0.27900443     0.97300
O13         O  0.91907216  0.31823115  0.24576514    -0.83300
O14         O  0.88184698  0.27813915  0.18524237    -0.85900
C15         C  0.87089669  0.29557980  0.16987983     1.01700
O16         O  0.85093885  0.29979168  0.19157184    -0.78700
O17         O  0.81985687  0.30961542  0.25992106    -0.78900
C18         C  0.84277345  0.33700259  0.27354609     1.01700
Cr19       Cr  0.86693789  0.30304133  0.31841900     1.93700
Cr20       Cr  0.88871308  0.27244757  0.24952470     1.93200
Cr21       Cr  0.82447799  0.27090323  0.23833549     1.39100
O22         O  0.85937130  0.28099610  0.26942642    -1.24000
O23         O  0.93752077  0.15632097  0.48874833    -0.86200
O24         O  0.94774025  0.21959229  0.49211428    -0.83300
C25         C  0.92147544  0.21847400  0.50247731     0.97300
O26         O  0.90983649  0.20985461  0.54058226    -0.83300
O27         O  0.90577681  0.18811676  0.62763661    -0.85900
C28         C  0.88855936  0.15808851  0.62941482     1.01800
O29         O  0.89830847  0.14033831  0.61159105    -0.78700
O30         O  0.93117579  0.12655558  0.54661139    -0.78900
C31         C  0.92670747  0.12855621  0.50637619     1.01700
O32         O  0.00017190  0.18052129  0.52222100    -0.86200
O33         O  0.00948138  0.24205051  0.54111809    -0.83300
C34         C  0.00317462  0.26280040  0.55738550     0.97300
O35         O  0.97406684  0.25517274  0.55771378    -0.83300
O36         O  0.97313129  0.22795682  0.63908544    -0.85900
C37         C  0.97392696  0.20750428  0.66453522     1.01700
O38         O  0.95971438  0.17797931  0.65479880    -0.78700
O39         O  0.99394804  0.16650168  0.59050625    -0.78900
C40         C  0.01067451  0.17408175  0.55572178     1.01700
Cr41       Cr  0.97194455  0.19909110  0.51560825     1.93700
Cr42       Cr  0.94147728  0.21758968  0.58960500     1.93200
Cr43       Cr  0.94627668  0.15554912  0.59790074     1.39100
O44         O  0.95213995  0.18967191  0.56738372    -1.24000
O45         O  0.87054827  0.37695431  0.83503350    -0.86200
O46         O  0.93365447  0.39513923  0.82588859    -0.83300
C47         C  0.96218893  0.40124750  0.83211185     0.97300
O48         O  0.97116102  0.39747386  0.87003759    -0.83300
O49         O  0.96146054  0.43680677  0.92812790    -0.85900
C50         C  0.94864212  0.44630719  0.95582986     1.01800
O51         O  0.91812702  0.42830235  0.96417076    -0.78700
O52         O  0.88164840  0.41447969  0.88472946    -0.78900
C53         C  0.87068823  0.40251788  0.84743131     1.01700
O54         O  0.86349776  0.32020753  0.88179512    -0.86200
O55         O  0.92644163  0.33613741  0.86506578    -0.83300
C56         C  0.93528068  0.33086939  0.90200909     0.97300
O57         O  0.93451554  0.34599445  0.93434068    -0.83300
O58         O  0.93183026  0.38502433  0.99189894    -0.85900
C59         C  0.90323144  0.36480279  0.00453200     1.01700
O60         O  0.87981423  0.35847907  0.97946121    -0.78700
O61         O  0.84083915  0.34687480  0.90738703    -0.78900
C62         C  0.83845594  0.32052421  0.89361370     1.01700
Cr63       Cr  0.89910708  0.35843268  0.85522497     1.93700
Cr64       Cr  0.94760836  0.39089049  0.92902532     1.93200
Cr65       Cr  0.88194611  0.38697154  0.93236122     1.39100
O66         O  0.90984380  0.37971753  0.90484802    -1.24000
O67         O  0.12957961  0.50863111  0.67409106    -0.86200
O68         O  0.06671766  0.45938552  0.68317751    -0.83300
C69         C  0.03778330  0.43854984  0.67456429     0.97300
O70         O  0.03087064  0.42411966  0.63779474    -0.83300
O71         O  0.03937979  0.47008142  0.57690599    -0.85900
C72         C  0.05180479  0.49233282  0.54922542     1.01800
O73         O  0.08239816  0.50546554  0.54157427    -0.78700
O74         O  0.11634519  0.53102430  0.62129829    -0.78900
C75         C  0.12894522  0.53316004  0.65850849     1.01700
O76         O  0.14250819  0.46079243  0.63255123    -0.86200
O77         O  0.08139792  0.41107507  0.64799564    -0.83300
C78         C  0.07354402  0.39478168  0.61250135     0.97300
O79         O  0.06835305  0.40637149  0.57890364    -0.83300
O80         O  0.07217927  0.44833135  0.51804822    -0.85900
C81         C  0.10133019  0.45835548  0.50628892     1.01700
O82         O  0.12419534  0.47694186  0.53117499    -0.78700
O83         O  0.16163222  0.50841406  0.60322111    -0.78900
C84         C  0.16633146  0.48658758  0.61975538     1.01700
Cr85       Cr  0.10413020  0.46046495  0.65591459     1.93700
Cr86       Cr  0.05528661  0.43927930  0.58009062     1.93200
Cr87       Cr  0.11918393  0.50318827  0.57606921     1.39100
O88         O  0.09259257  0.46789883  0.60447824    -1.24000
O89         O  0.05024349  0.19842557  0.99977407    -0.86200
O90         O  0.06405428  0.25964190  0.01593999    -0.83300
C91         C  0.06834399  0.28748708  0.01169330     0.97300
O92         O  0.06115281  0.29561072  0.97567661    -0.83300
O93         O  0.10251384  0.29358048  0.91449460    -0.85900
C94         C  0.11363812  0.28360043  0.88505251     1.01800
O95         O  0.09782728  0.25359304  0.87443628    -0.78700
O96         O  0.08781166  0.21471127  0.94906171    -0.78900
C97         C  0.07695224  0.20173132  0.98565030     1.01700
O98         O  0.99019631  0.18735089  0.95725314    -0.86200
O99         O  0.00131880  0.24724204  0.98188005    -0.83300
C100        C  0.99318495  0.25647751  0.94754438     0.97300
O101        O  0.00854184  0.26020214  0.91314680    -0.83300
O102        O  0.05012127  0.26412672  0.85169988    -0.85900
C103        C  0.03319887  0.23621934  0.83542597     1.01700
O104        O  0.02829255  0.21175464  0.85669174    -0.78700
O105        O  0.02017262  0.17073242  0.92461815    -0.78900
C106        C  0.99289229  0.16486479  0.94062054     1.01700
Cr107      Cr  0.02775691  0.22401917  0.98519146     1.93700
Cr108      Cr  0.05516317  0.27587783  0.91545944     1.93200
Cr109      Cr  0.05810638  0.21433801  0.90325957     1.39100
O110        O  0.04758763  0.23823242  0.93494108    -1.24000
O111        O  0.18141663  0.46179522  0.16842413    -0.86200
O112        O  0.13483194  0.39995921  0.15717121    -0.83300
C113        C  0.11187685  0.37196112  0.16264272     0.97300
O114        O  0.09797967  0.36407611  0.19943872    -0.83300
O115        O  0.14538920  0.37091634  0.25630815    -0.85900
C116        C  0.16724083  0.38190568  0.28496589     1.01800
O117        O  0.18085876  0.41182603  0.29553447    -0.78700
O118        O  0.20610522  0.44897846  0.21902580    -0.78900
C119        C  0.20618705  0.46017992  0.18166580     1.01700
O120        O  0.13253777  0.47168668  0.21315670    -0.86200
O121        O  0.08328669  0.41007445  0.19399374    -0.83300
C122        C  0.06731071  0.40068350  0.22957157     0.97300
O123        O  0.08110056  0.39859334  0.26316505    -0.83300
O124        O  0.12365538  0.39954204  0.32175859    -0.85900
C125        C  0.13371591  0.42759345  0.33688906     1.01700
O126        O  0.15153039  0.45173557  0.31373500    -0.78700
O127        O  0.18105989  0.49119335  0.24274950    -0.78900
C128        C  0.15829893  0.49532283  0.22734057     1.01700
Cr129      Cr  0.13355201  0.43521597  0.18654211     1.93700
Cr130      Cr  0.11395985  0.38573587  0.25846429     1.93200
Cr131      Cr  0.17776996  0.44924801  0.26597297     1.39100
O132        O  0.14208429  0.42341995  0.23675595    -1.24000
O133        O  0.19980255  0.74923711  0.71291682    -0.86200
O134        O  0.17590676  0.76238901  0.78976996    -0.83300
C135        C  0.16101962  0.77775118  0.77946938     0.97300
O136        O  0.13852897  0.76545842  0.75159030    -0.83300
O137        O  0.08823840  0.72147361  0.69927269    -0.85900
C138        C  0.10076880  0.72692373  0.66153651     1.01800
O139        O  0.12273691  0.72054253  0.65297489    -0.78700
O140        O  0.17454426  0.71121271  0.66324237    -0.78900
C141        C  0.19946698  0.73737403  0.67606727     1.01700
O142        O  0.17916648  0.68350418  0.73899663    -0.86200
O143        O  0.14977387  0.69391535  0.81019202    -0.83300
C144        C  0.13311877  0.70072577  0.83493899     0.97300
O145        O  0.12151926  0.71766039  0.81998360    -0.83300
O146        O  0.07735510  0.67344151  0.76509727    -0.85900
C147        C  0.06576196  0.65262858  0.73540168     1.01700
O148        O  0.07889715  0.65937694  0.69784880    -0.78700
O149        O  0.13060961  0.65237462  0.71189321    -0.78900
C150        C  0.15732911  0.65596765  0.72443236     1.01700
Cr151      Cr  0.17378668  0.72165987  0.76123379     1.93700
Cr152      Cr  0.10838834  0.71896905  0.75693900     1.93200
Cr153      Cr  0.12741391  0.68764621  0.68476650     1.39100
O154        O  0.13680551  0.70985724  0.73368635    -1.24000
O155        O  0.08361617  0.86137803  0.44408193    -0.86200
O156        O  0.09434709  0.83830196  0.36602431    -0.83300
C157        C  0.11334299  0.82831196  0.37947323     0.97300
O158        O  0.10390456  0.80965075  0.41113481    -0.83300
O159        O  0.06752315  0.75997811  0.46660947    -0.85900
C160        C  0.06501231  0.76823193  0.50516600     1.01800
O161        O  0.05125159  0.78421182  0.51254746    -0.78700
O162        O  0.04781922  0.83708616  0.49617495    -0.78900
C163        C  0.07549794  0.86032736  0.48331574     1.01700
O164        O  0.01709265  0.84084948  0.42486605    -0.86200
O165        O  0.02487285  0.80877893  0.35197204    -0.83300
C166        C  0.03038486  0.78964343  0.33040841     0.97300
O167        O  0.05092049  0.78160474  0.34422543    -0.83300
O168        O  0.01701952  0.73657263  0.40176650    -0.85900
C169        C  0.99270308  0.72545423  0.42565791     1.01700
O170        O  0.99331192  0.74105888  0.45970666    -0.78700
O171        O  0.98839499  0.79064311  0.43773215    -0.78900
C172        C  0.98981124  0.81701282  0.43564283     1.01700
Cr173      Cr  0.05436650  0.83495215  0.39843537     1.93700
Cr174      Cr  0.05949480  0.77401422  0.40747308     1.93200
Cr175      Cr  0.02152507  0.78924401  0.47373643     1.39100
O176        O  0.04569476  0.79925349  0.42754502    -1.24000
O177        O  0.79851357  0.54307152  0.78484030    -0.86200
O178        O  0.82505599  0.58172837  0.70978687    -0.83300
C179        C  0.83981633  0.61183907  0.72005205     0.97300
O180        O  0.86239567  0.62213519  0.74806019    -0.83300
O181        O  0.91064879  0.62517355  0.80426158    -0.85900
C182        C  0.89744249  0.61772089  0.84150402     1.01800
O183        O  0.87258029  0.59073629  0.84669174    -0.78700
O184        O  0.82261831  0.52930343  0.83517081    -0.78900
C185        C  0.79809272  0.53118837  0.82176522     1.01700
O186        O  0.82117774  0.49927942  0.75898285    -0.86200
O187        O  0.85228308  0.53994670  0.69018279    -0.83300
C188        C  0.87005953  0.56384551  0.66686515     0.97300
O189        O  0.88087112  0.59193922  0.68219563    -0.83300
O190        O  0.92300312  0.58965635  0.73929707    -0.85900
C191        C  0.93483782  0.58300688  0.77155241     1.01700
O192        O  0.91940633  0.57512724  0.80745201    -0.78700
O193        O  0.86895533  0.51645399  0.78929495    -0.78900
C194        C  0.84311034  0.49373674  0.77408318     1.01700
Cr195      Cr  0.82646650  0.54272278  0.73770029     1.93700
Cr196      Cr  0.89203712  0.60471901  0.74537194     1.93200
Cr197      Cr  0.87024785  0.55387004  0.81644680     1.39100
O198        O  0.86250780  0.56722266  0.76696872    -1.24000
O199        O  0.91609943  0.77559283  0.04028366    -0.86200
O200        O  0.90169721  0.74075085  0.11960072    -0.83300
C201        C  0.88598929  0.71066907  0.10886960     0.97300
O202        O  0.89721616  0.70119254  0.07926093    -0.83300
O203        O  0.94199794  0.69305585  0.03165034    -0.85900
C204        C  0.94018194  0.70114854  0.99265529     1.01800
O205        O  0.94626182  0.72926457  0.98494245    -0.78700
O206        O  0.95726362  0.79018555  0.99530823    -0.78900
C207        C  0.93008695  0.78854728  0.00502430     1.01700
O208        O  0.98269336  0.82108134  0.06548390    -0.86200
O209        O  0.97063798  0.78330802  0.14121711    -0.83300
C210        C  0.96458085  0.75928883  0.16440521     0.97300
O211        O  0.94487689  0.73084087  0.15100463    -0.83300
O212        O  0.98732334  0.72795764  0.10147143    -0.85900
C213        C  0.00785574  0.73236099  0.07367792     1.01700
O214        O  0.00416004  0.74087917  0.03557592    -0.78700
O215        O  0.01167404  0.79881426  0.05597002    -0.78900
C216        C  0.00992745  0.82373309  0.05458019     1.01700
Cr217      Cr  0.94313679  0.77862465  0.09053683     1.93700
Cr218      Cr  0.94293816  0.71508436  0.08898447     1.93200
Cr219      Cr  0.97864088  0.76444333  0.02022915     1.39100
O220        O  0.95390132  0.75214790  0.06562430    -1.24000
O221        O  0.12130445  0.57967277  0.11722995    -0.86200
O222        O  0.08227774  0.57137041  0.04243501    -0.83300
C223        C  0.05184190  0.55670669  0.05209150     0.97300
O224        O  0.04178222  0.56904198  0.07989914    -0.83300
O225        O  0.04109805  0.61246544  0.14053427    -0.85900
C226        C  0.04725199  0.60434232  0.17729825     1.01800
O227        O  0.07404625  0.60543239  0.18278600    -0.78700
O228        O  0.13567733  0.61521630  0.17050762    -0.78900
C229        C  0.13303583  0.58937464  0.15499703     1.01700
O230        O  0.16710108  0.64615040  0.09436245    -0.86200
O231        O  0.12711000  0.64050563  0.02637221    -0.83300
C232        C  0.10349309  0.63713714  0.00366314     0.97300
O233        O  0.07490891  0.62010992  0.01807574    -0.83300
O234        O  0.08072661  0.66294591  0.07920488    -0.85900
C235        C  0.08652995  0.67901799  0.11356428     1.01700
O236        O  0.09346415  0.66921262  0.14831992    -0.78700
O237        O  0.15166219  0.67603345  0.12942706    -0.78900
C238        C  0.17363085  0.67304082  0.11149837     1.01700
Cr239      Cr  0.12264567  0.60984937  0.07205305     1.93700
Cr240      Cr  0.06214787  0.61629851  0.08137848     1.93200
Cr241      Cr  0.11274874  0.63994809  0.15424379     1.39100
O242        O  0.09895572  0.62123615  0.10308732    -1.24000
O243        O  0.88258537  0.45941407  0.38255970    -0.86200
O244        O  0.92084848  0.48873845  0.45813809    -0.83300
C245        C  0.95147349  0.50397270  0.44936886     0.97300
O246        O  0.96220448  0.52650040  0.42175891    -0.83300
O247        O  0.96453766  0.57232315  0.36213639    -0.85900
C248        C  0.95876407  0.55849088  0.32514625     1.01800
O249        O  0.93211812  0.53305365  0.31899618    -0.78700
O250        O  0.87009330  0.48176993  0.32862661    -0.78900
C251        C  0.87151578  0.45788595  0.34447155     1.01700
O252        O  0.83712786  0.48130059  0.40395645    -0.86200
O253        O  0.87673724  0.51437134  0.47363750    -0.83300
C254        C  0.90041379  0.53329797  0.49720929     0.97300
O255        O  0.92900523  0.54431896  0.48313573    -0.83300
O256        O  0.92469297  0.58320662  0.42341612    -0.85900
C257        C  0.91833245  0.59363513  0.38954799     1.01700
O258        O  0.91226636  0.57761804  0.35418085    -0.78700
O259        O  0.85371891  0.52682407  0.36939336    -0.78900
C260        C  0.83111665  0.50186208  0.38596076     1.01700
Cr261      Cr  0.88114090  0.48822323  0.42771698     1.93700
Cr262      Cr  0.94256334  0.55427841  0.42049906     1.93200
Cr263      Cr  0.89302564  0.52922605  0.34625008     1.39100
O264        O  0.90574234  0.52334913  0.39764732    -1.24000
O265        O  0.71156036  0.52707432  0.32447045    -0.86200
O266        O  0.71214523  0.58224408  0.34752586    -0.83300
C267        C  0.73164670  0.61200694  0.34443797     0.97300
O268        O  0.74011322  0.62582363  0.30770836    -0.83300
O269        O  0.77358636  0.61569684  0.24539160    -0.85900
C270        C  0.78072780  0.60799421  0.21027972     1.01800
O271        O  0.76201606  0.57947818  0.19651390    -0.78700
O272        O  0.75145924  0.54261236  0.27586758    -0.78900
C273        C  0.73885874  0.52980985  0.31218435     1.01700
O274        O  0.65411550  0.51449861  0.26622351    -0.86200
O275        O  0.65715782  0.56856530  0.28918507    -0.83300
C276        C  0.66122781  0.59053953  0.26240931     0.97300
O277        O  0.68847978  0.60806977  0.24607609    -0.83300
O278        O  0.71787775  0.59493808  0.18252908    -0.85900
C279        C  0.69827554  0.56726815  0.16579533     1.01700
O280        O  0.69378683  0.54142418  0.18315634    -0.78700
O281        O  0.68695734  0.49777248  0.25040080    -0.78900
C282        C  0.65838723  0.49131730  0.25983989     1.01700
Cr283      Cr  0.68575060  0.54926415  0.30407577     1.93700
Cr284      Cr  0.72916320  0.60809797  0.24662176     1.93200
Cr285      Cr  0.72310849  0.54232420  0.22880307     1.39100
O286        O  0.71297283  0.56718160  0.26090708    -1.24000
O287        O  0.83633525  0.76640466  0.48760411    -0.86200
O288        O  0.77198285  0.71625168  0.48731978    -0.83300
C289        C  0.77254096  0.69103505  0.49851728     0.97300
O290        O  0.77794530  0.68667328  0.53789258    -0.83300
O291        O  0.79755372  0.70182653  0.62569966    -0.85900
C292        C  0.82745771  0.71149837  0.62563428     1.01800
O293        O  0.84708352  0.73822547  0.60741299    -0.78700
O294        O  0.86600981  0.78991771  0.54644562    -0.78900
C295        C  0.86398985  0.78229063  0.50653736     1.01700
O296        O  0.81585828  0.80745557  0.52326239    -0.86200
O297        O  0.75276454  0.75878840  0.53613835    -0.83300
C298        C  0.73041865  0.73249465  0.55151311     0.97300
O299        O  0.73535563  0.70947430  0.54979289    -0.83300
O300        O  0.76179941  0.73378305  0.63429986    -0.85900
C301        C  0.78361436  0.75198487  0.66149281     1.01700
O302        O  0.81325103  0.76316625  0.65324829    -0.78700
O303        O  0.82680875  0.81107608  0.59281135    -0.78900
C304        C  0.82122740  0.82238571  0.55857010     1.01700
Cr305      Cr  0.79435055  0.76084250  0.51254973     1.93700
Cr306      Cr  0.77050035  0.71083874  0.58555574     1.93200
Cr307      Cr  0.83583696  0.77376887  0.59686730     1.39100
O308        O  0.80130100  0.74831632  0.56453354    -1.24000
O309        O  0.80056093  0.84030772  0.00079911    -0.86200
O310        O  0.73810038  0.79052595  0.01507043    -0.83300
C311        C  0.71053315  0.76592893  0.01002148     0.97300
O312        O  0.70356544  0.75113633  0.97370159    -0.83300
O313        O  0.70507985  0.79485795  0.91183400    -0.85900
C314        C  0.71559134  0.81671144  0.88322657     1.01800
O315        O  0.74600771  0.83126978  0.87350921    -0.78700
O316        O  0.78641428  0.86142502  0.94711787    -0.78900
C317        C  0.79885299  0.86395808  0.98455082     1.01700
O318        O  0.81396122  0.79292242  0.96049268    -0.86200
O319        O  0.75414840  0.74291610  0.98116500    -0.83300
C320        C  0.74618682  0.72598470  0.94639224     0.97300
O321        O  0.74136442  0.73702357  0.91203967    -0.83300
O322        O  0.73526349  0.77376445  0.85093731    -0.85900
C323        C  0.76316547  0.78451073  0.83477907     1.01700
O324        O  0.78804772  0.80381856  0.85628279    -0.78700
O325        O  0.83005853  0.83760830  0.92375902    -0.78900
C326        C  0.83618349  0.81708661  0.94160610     1.01700
Cr327      Cr  0.77573231  0.79220582  0.98578723     1.93700
Cr328      Cr  0.72399163  0.76643672  0.91415434     1.93200
Cr329      Cr  0.78587423  0.83133281  0.90236605     1.39100
O330        O  0.76171151  0.79727370  0.93458067    -1.24000
O331        O  0.53509043  0.71114790  0.16526368    -0.86200
O332        O  0.59479892  0.71857973  0.15253542    -0.83300
C333        C  0.62208213  0.72094383  0.15824817     0.97300
O334        O  0.62878799  0.71335406  0.19502328    -0.83300
O335        O  0.62820814  0.75760213  0.25297685    -0.85900
C336        C  0.61936607  0.77008008  0.28194041     1.01800
O337        O  0.58912007  0.75636726  0.29203922    -0.78700
O338        O  0.55177315  0.74851789  0.21607945    -0.78900
C339        C  0.53875900  0.73771043  0.17931579     1.01700
O340        O  0.51687340  0.65069305  0.20916033    -0.86200
O341        O  0.57506030  0.65537734  0.19055314    -0.83300
C342        C  0.58377740  0.64714246  0.22533796     0.97300
O343        O  0.59021099  0.66416043  0.25880283    -0.83300
O344        O  0.59536248  0.70761085  0.31706866    -0.85900
C345        C  0.56709656  0.69274302  0.33332999     1.01700
O346        O  0.54302398  0.68992408  0.31180930    -0.78700
O347        O  0.50286265  0.68325089  0.23939124    -0.78900
C348        C  0.49489410  0.65615022  0.22130403     1.01700
Cr349      Cr  0.55644714  0.68530558  0.18288896     1.93700
Cr350      Cr  0.60805877  0.71050188  0.25414660     1.93200
Cr351      Cr  0.54826711  0.71867604  0.26287696     1.39100
O352        O  0.57091108  0.70504770  0.23318729    -1.24000
O353        O  0.49338158  0.62103877  0.67378316    -0.86200
O354        O  0.54563397  0.61187598  0.68828845    -0.83300
C355        C  0.56769584  0.60526688  0.67988138     0.97300
O356        O  0.58449443  0.61651898  0.64571161    -0.83300
O357        O  0.54455473  0.57555866  0.58263579    -0.85900
C358        C  0.52138168  0.56196284  0.55578326     1.01800
O359        O  0.50380880  0.57478637  0.54729653    -0.78700
O360        O  0.47487121  0.58272950  0.62446611    -0.78900
C361        C  0.47072411  0.59403673  0.65959972     1.01700
O362        O  0.53808041  0.68094364  0.63085608    -0.86200
O363        O  0.59103956  0.67558050  0.65498227    -0.83300
C364        C  0.60787508  0.68604578  0.62054923     0.97300
O365        O  0.59743908  0.67016888  0.58606572    -0.83300
O366        O  0.56167230  0.62824542  0.52380847    -0.85900
C367        C  0.54606454  0.64076869  0.50749075     1.01700
O368        O  0.52383306  0.64166406  0.52841523    -0.78700
O369        O  0.49168467  0.64794843  0.59825615    -0.78900
C370        C  0.51177459  0.67583720  0.61368987     1.01700
Cr371      Cr  0.54172201  0.64591413  0.65831008     1.93700
Cr372      Cr  0.56979267  0.62303840  0.58650138     1.93200
Cr373      Cr  0.50088836  0.61240933  0.57691176     1.39100
O374        O  0.53714730  0.62656122  0.60734952    -1.24000
O375        O  0.62152089  0.48132338  0.83582161    -0.86200
O376        O  0.60852432  0.52919788  0.81920632    -0.83300
C377        C  0.60083468  0.55037032  0.82493388     0.97300
O378        O  0.60310564  0.56245570  0.86243948    -0.83300
O379        O  0.56192973  0.51317671  0.91827308    -0.85900
C380        C  0.55308511  0.49471133  0.95058792     1.01800
O381        O  0.57090857  0.48278184  0.96238222    -0.78700
O382        O  0.58409838  0.45684784  0.88666234    -0.78900
C383        C  0.59536573  0.45657043  0.84945348     1.01700
O384        O  0.68029445  0.53041044  0.88389787    -0.86200
O385        O  0.66794637  0.57930517  0.86259698    -0.83300
C386        C  0.67072693  0.59429940  0.89832132     0.97300
O387        O  0.65243776  0.57941984  0.92899454    -0.83300
O388        O  0.61258497  0.53914686  0.98542861    -0.85900
C389        C  0.63364594  0.53294579  0.00099594     1.01700
O390        O  0.64071370  0.51427960  0.98087517    -0.78700
O391        O  0.65133129  0.48232643  0.91149249    -0.78900
C392        C  0.67842237  0.50476190  0.89692483     1.01700
Cr393      Cr  0.64316161  0.52932991  0.85374883     1.93700
Cr394      Cr  0.60794964  0.54659646  0.92178380     1.93200
Cr395      Cr  0.61210550  0.48604704  0.93337332     1.39100
O396        O  0.62049614  0.52022742  0.90216645    -1.24000
O397        O  0.54476338  0.42067913  0.38593568    -0.86200
O398        O  0.52419586  0.43204434  0.46888979    -0.83300
C399        C  0.51088310  0.44957719  0.46331890     0.97300
O400        O  0.48752777  0.44028464  0.43688315    -0.83300
O401        O  0.43737708  0.40275785  0.37979093    -0.85900
C402        C  0.44896833  0.40895110  0.34132862     1.01800
O403        O  0.46995098  0.40168903  0.33030963    -0.78700
O404        O  0.51672710  0.38421228  0.33546385    -0.78900
C405        C  0.54295129  0.40911794  0.34819711     1.01700
O406        O  0.51924012  0.35281729  0.40539084    -0.86200
O407        O  0.49406289  0.36181913  0.48105203    -0.83300
C408        C  0.47664778  0.36682378  0.50693061     0.97300
O409        O  0.46764837  0.38681206  0.49639869    -0.83300
O410        O  0.42404621  0.34899428  0.43881423    -0.85900
C411        C  0.40737524  0.33476843  0.40625848     1.01700
O412        O  0.42063662  0.34118131  0.36886026    -0.78700
O413        O  0.46922469  0.32588247  0.38015603    -0.78900
C414        C  0.49519800  0.32657296  0.39073541     1.01700
Cr415      Cr  0.51846392  0.39178270  0.43370728     1.93700
Cr416      Cr  0.45585538  0.39420732  0.43564854     1.93200
Cr417      Cr  0.47007443  0.36460898  0.35722289     1.39100
O418        O  0.48208012  0.38445636  0.40817701    -1.24000
O419        O  0.41915241  0.53156847  0.11743718    -0.86200
O420        O  0.43143750  0.50202946  0.04510364    -0.83300
C421        C  0.44841417  0.48975138  0.05903610     0.97300
O422        O  0.43871473  0.47214993  0.09206378    -0.83300
O423        O  0.39813836  0.42947706  0.15334806    -0.85900
C424        C  0.40168026  0.44443573  0.18904609     1.01800
O425        O  0.39306906  0.46520249  0.19197898    -0.78700
O426        O  0.37978990  0.51191353  0.16567306    -0.78900
C427        C  0.40642174  0.53541883  0.15131989     1.01700
O428        O  0.35211845  0.50732399  0.08988997    -0.86200
O429        O  0.36259762  0.47263297  0.02484964    -0.83300
C430        C  0.36869959  0.45258726  0.00683179     0.97300
O431        O  0.38719551  0.44403762  0.02551613    -0.83300
O432        O  0.34694430  0.40762418  0.08603326    -0.85900
C433        C  0.32929926  0.39589654  0.11844240     1.01700
O434        O  0.33374462  0.41342334  0.15192549    -0.78700
O435        O  0.32216582  0.46044685  0.12039862    -0.78900
C436        C  0.32467582  0.48577276  0.10490050     1.01700
Cr437      Cr  0.39096118  0.50154319  0.07161040     1.93700
Cr438      Cr  0.39219537  0.44023615  0.09082802     1.93200
Cr439      Cr  0.35865333  0.46319868  0.15410731     1.39100
O440        O  0.38114628  0.46864414  0.10607437    -1.24000
O441        O  0.13857746  0.21962901  0.44618264    -0.86200
O442        O  0.16942805  0.25473858  0.36947233    -0.83300
C443        C  0.18510445  0.28528767  0.37702315     0.97300
O444        O  0.20741953  0.29691410  0.40512736    -0.83300
O445        O  0.24905093  0.30197226  0.47084499    -0.85900
C446        C  0.23180154  0.29606585  0.50498201     1.01800
O447        O  0.20613639  0.26968352  0.50780447    -0.78700
O448        O  0.15976724  0.20729698  0.50134015    -0.78900
C449        C  0.13638719  0.20956233  0.48487845     1.01700
O450        O  0.16298213  0.17480710  0.43144555    -0.86200
O451        O  0.19505168  0.21079683  0.35785901    -0.83300
C452        C  0.21615088  0.23396123  0.33572307     0.97300
O453        O  0.22842695  0.26265216  0.34969986    -0.83300
O454        O  0.26469122  0.26085147  0.41637522    -0.85900
C455        C  0.27599408  0.26067226  0.45317056     1.01700
O456        O  0.25815726  0.25526972  0.48653343    -0.78700
O457        O  0.20940861  0.19482769  0.46727733    -0.78900
C458        C  0.18397517  0.17087048  0.45311011     1.01700
Cr459      Cr  0.16862701  0.21668797  0.40307000     1.93700
Cr460      Cr  0.23527288  0.27823515  0.41208348     1.93200
Cr461      Cr  0.20805179  0.23239433  0.48728810     1.39100
O462        O  0.20354672  0.24234423  0.43387934    -1.24000
O463        O  0.25410250  0.45014360  0.72699372    -0.86200
O464        O  0.24506756  0.41094793  0.80051562    -0.83300
C465        C  0.22814080  0.38120853  0.78881648     0.97300
O466        O  0.23822161  0.37120775  0.75813928    -0.83300
O467        O  0.27784271  0.36719956  0.69584659    -0.85900
C468        C  0.27094002  0.37596324  0.66019737     1.01800
O469        O  0.27483584  0.40359877  0.65720121    -0.78700
O470        O  0.28910601  0.46410986  0.67338038    -0.78900
C471        C  0.26338570  0.46195415  0.68945652     1.01700
O472        O  0.32265578  0.49318635  0.74741125    -0.86200
O473        O  0.31510534  0.45137595  0.81675856    -0.83300
C474        C  0.31021242  0.42622770  0.83655695     0.97300
O475        O  0.29164201  0.39865681  0.82007151    -0.83300
O476        O  0.33148539  0.40037877  0.75711920    -0.85900
C477        C  0.34634327  0.40422833  0.72210678     1.01700
O478        O  0.33843773  0.41481471  0.68868092    -0.78700
O479        O  0.35071875  0.47562581  0.71191845    -0.78900
C480        C  0.34861496  0.49874560  0.72739281     1.01700
Cr481      Cr  0.28478497  0.44980573  0.77083860     1.93700
Cr482      Cr  0.28519515  0.38697205  0.75625239     1.93200
Cr483      Cr  0.31216540  0.43872585  0.68651587     1.39100
O484        O  0.29388300  0.42525559  0.73779700    -1.24000
O485        O  0.22091048  0.13277997  0.04597524    -0.86200
O486        O  0.25939790  0.15676656  0.12263092    -0.83300
C487        C  0.28883259  0.16938902  0.10931903     0.97300
O488        O  0.29712673  0.18862744  0.07820623    -0.83300
O489        O  0.30348608  0.23664528  0.02446317    -0.85900
C490        C  0.29338555  0.22382362  0.98731234     1.01800
O491        O  0.26410743  0.20336242  0.98097389    -0.78700
O492        O  0.20332775  0.15510527  0.99828640    -0.78900
C493        C  0.20606196  0.13108578  0.01081712     1.01700
O494        O  0.17651445  0.15405938  0.07359783    -0.86200
O495        O  0.21895782  0.18467556  0.14425498    -0.83300
C496        C  0.24460567  0.20369269  0.16495749     0.97300
O497        O  0.27238937  0.21268158  0.14841610    -0.83300
O498        O  0.27232713  0.25388465  0.09196838    -0.85900
C499        C  0.26730727  0.26746410  0.06069228     1.01700
O500        O  0.25476435  0.25202607  0.02537646    -0.78700
O501        O  0.19441117  0.20260887  0.04816497    -0.78900
C502        C  0.17103232  0.17607806  0.05977079     1.01700
Cr503      Cr  0.22040419  0.15905094  0.09470854     1.93700
Cr504      Cr  0.28394565  0.22111694  0.08414277     1.93200
Cr505      Cr  0.23000656  0.20270191  0.01657572     1.39100
O506        O  0.24481776  0.19425204  0.06477129    -1.24000
O507        O  0.45117797  0.24063768  0.79176397    -0.86200
O508        O  0.41667102  0.22756903  0.71119847    -0.83300
C509        C  0.38588959  0.21192159  0.71925056     0.97300
O510        O  0.37441110  0.22417106  0.74459666    -0.83300
O511        O  0.36817492  0.26583661  0.79853975    -0.85900
C512        C  0.37455241  0.25972192  0.83659235     1.01800
O513        O  0.40284514  0.26611034  0.84649116    -0.78700
O514        O  0.46605709  0.27999594  0.83939908    -0.78900
C515        C  0.46441707  0.25352373  0.82771961     1.01700
O516        O  0.49708399  0.30740688  0.76692633    -0.86200
O517        O  0.46078558  0.29678914  0.69320784    -0.83300
C518        C  0.43812397  0.29253100  0.66791707     0.97300
O519        O  0.40889818  0.27431033  0.67985569    -0.83300
O520        O  0.40881399  0.31661209  0.73525142    -0.85900
C521        C  0.40781847  0.33199418  0.76722788     1.01700
O522        O  0.41518079  0.32594413  0.80482002    -0.78700
O523        O  0.47718287  0.33726391  0.79013761    -0.78900
C524        C  0.50124923  0.33489000  0.77896252     1.01700
Cr525      Cr  0.45467849  0.26833294  0.74232933     1.93700
Cr526      Cr  0.39224269  0.27073866  0.74155071     1.93200
Cr527      Cr  0.43973207  0.30092821  0.81702690     1.39100
O528        O  0.42854914  0.27915631  0.76760851    -1.24000
O529        O  0.46502343  0.87752679  0.11837206    -0.86200
O530        O  0.49248712  0.91512109  0.04174396    -0.83300
C531        C  0.50747887  0.94514832  0.05194873     0.97300
O532        O  0.52836272  0.95492769  0.08187041    -0.83300
O533        O  0.57362669  0.95885548  0.14077439    -0.85900
C534        C  0.55913517  0.95073586  0.17726155     1.01800
O535        O  0.53559714  0.92290988  0.18218917    -0.78700
O536        O  0.48773933  0.86176599  0.16814172    -0.78900
C537        C  0.46379428  0.86471188  0.15492599     1.01700
O538        O  0.48751434  0.83347772  0.09391114    -0.86200
O539        O  0.51873983  0.87289572  0.02452989    -0.83300
C540        C  0.53830851  0.89681047  0.00233707     0.97300
O541        O  0.54973139  0.92511985  0.01743188    -0.83300
O542        O  0.58974617  0.92342822  0.07749883    -0.85900
C543        C  0.60245777  0.92025979  0.11141190     1.01700
O544        O  0.58588028  0.91119258  0.14638768    -0.78700
O545        O  0.53579599  0.85103943  0.12339229    -0.78900
C546        C  0.50968786  0.82821163  0.10860288     1.01700
Cr547      Cr  0.49298954  0.87643939  0.07157602     1.93700
Cr548      Cr  0.55834976  0.93821602  0.08104748     1.93200
Cr549      Cr  0.53576986  0.88747540  0.15166649     1.39100
O550        O  0.52868867  0.90081862  0.10169417    -1.24000
O551        O  0.58040166  0.10850549  0.38542799    -0.86200
O552        O  0.57145329  0.07157419  0.46138094    -0.83300
C553        C  0.55593579  0.04146405  0.45122438     0.97300
O554        O  0.56744679  0.03153294  0.42232696    -0.83300
O555        O  0.61019358  0.02793097  0.36505259    -0.85900
C556        C  0.60210978  0.03462346  0.32861948     1.01800
O557        O  0.60460261  0.06163509  0.32363618    -0.78700
O558        O  0.61716035  0.12265688  0.33394661    -0.78900
C559        C  0.59100014  0.12043804  0.34830588     1.01700
O560        O  0.64778987  0.15392203  0.40800270    -0.86200
O561        O  0.64107664  0.11482638  0.47824660    -0.83300
C562        C  0.63578645  0.09130516  0.50192286     0.97300
O563        O  0.61826047  0.06299610  0.48712241    -0.83300
O564        O  0.66159893  0.06611325  0.42816530    -0.85900
C565        C  0.67757931  0.07009197  0.39417959     1.01700
O566        O  0.66880860  0.07755635  0.35871980    -0.78700
O567        O  0.67817256  0.13743507  0.37621087    -0.78900
C568        C  0.67478379  0.16003039  0.39078801     1.01700
Cr569      Cr  0.61067010  0.11059937  0.43156425     1.93700
Cr570      Cr  0.61474419  0.04951932  0.42391510     1.93200
Cr571      Cr  0.64092775  0.09895461  0.35140403     1.39100
O572        O  0.62178379  0.08638548  0.40200729    -1.24000
O573        O  0.87403902  0.08027477  0.04863745    -0.86200
O574        O  0.84998873  0.09153590  0.12783613    -0.83300
C575        C  0.83497405  0.10731398  0.12004126     0.97300
O576        O  0.81152896  0.09570876  0.09351228    -0.83300
O577        O  0.76341205  0.05446408  0.03654755    -0.85900
C578        C  0.77681896  0.06186764  0.99927872     1.01800
O579        O  0.80124101  0.05917103  0.99259541    -0.78700
O580        O  0.84855342  0.04369520  0.99744014    -0.78900
C581        C  0.87362713  0.06948759  0.01083885     1.01700
O582        O  0.85047982  0.01282189  0.07001362    -0.86200
O583        O  0.82301159  0.02167949  0.14424905    -0.83300
C584        C  0.80458480  0.02615936  0.16896250     0.97300
O585        O  0.79470505  0.04502115  0.15635975    -0.83300
O586        O  0.75344273  0.00305156  0.09845370    -0.85900
C587        C  0.73702227  0.98920193  0.06549616     1.01700
O588        O  0.75099113  0.99645861  0.02835770    -0.78700
O589        O  0.80160946  0.98434031  0.04100854    -0.78900
C590        C  0.82775631  0.98632034  0.05364037     1.01700
Cr591      Cr  0.84738545  0.05128857  0.09617390     1.93700
Cr592      Cr  0.78251770  0.04915244  0.09426140     1.93200
Cr593      Cr  0.80123600  0.02210330  0.01811792     1.39100
O594        O  0.81102879  0.04154527  0.06909885    -1.24000
O595        O  0.75461386  0.19511029  0.78804552    -0.86200
O596        O  0.76334821  0.16512480  0.71278242    -0.83300
C597        C  0.77773852  0.14917296  0.72308067     0.97300
O598        O  0.76517205  0.12760710  0.75161240    -0.83300
O599        O  0.72260781  0.08570865  0.81240338    -0.85900
C600        C  0.73105578  0.10124510  0.84835422     1.01800
O601        O  0.72859382  0.12587250  0.85235883    -0.78700
O602        O  0.71682438  0.17475866  0.83849963    -0.78900
C603        C  0.74397406  0.19754542  0.82470741     1.01700
O604        O  0.68679612  0.17406764  0.76383668    -0.86200
O605        O  0.69368787  0.14132093  0.69547462    -0.83300
C606        C  0.69721174  0.12141880  0.67303634     0.97300
O607        O  0.71365084  0.10937354  0.68836168    -0.83300
O608        O  0.67060776  0.07281508  0.74866257    -0.85900
C609        C  0.65537484  0.06077960  0.78290305     1.01700
O610        O  0.66465267  0.07729140  0.81803945    -0.78700
O611        O  0.65589562  0.12749661  0.79538661    -0.78900
C612        C  0.65915056  0.15298340  0.77939598     1.01700
Cr613      Cr  0.72425855  0.16697390  0.74187468     1.93700
Cr614      Cr  0.71769508  0.10087690  0.75200328     1.93200
Cr615      Cr  0.69275633  0.12679276  0.82277319     1.39100
O616        O  0.71237459  0.13210518  0.77259730    -1.24000
O617        O  0.78414167  0.90759401  0.45686885    -0.86200
O618        O  0.74798326  0.89485982  0.37832753    -0.83300
C619        C  0.71728720  0.87890831  0.38653207     0.97300
O620        O  0.70611093  0.88962540  0.41477676    -0.83300
O621        O  0.69816579  0.93132041  0.46887204    -0.85900
C622        C  0.70484283  0.92546621  0.50692387     1.01800
O623        O  0.73289739  0.93063672  0.51563747    -0.78700
O624        O  0.79597339  0.94450749  0.50761616    -0.78900
C625        C  0.79445698  0.91833170  0.49471449     1.01700
O626        O  0.82776740  0.97541083  0.43233564    -0.86200
O627        O  0.78974851  0.96368373  0.35958024    -0.83300
C628        C  0.76614998  0.95724152  0.33462433     0.97300
O629        O  0.73738265  0.93925439  0.34842980    -0.83300
O630        O  0.73789955  0.98150616  0.40517061    -0.85900
C631        C  0.73783877  0.99712444  0.43755775     1.01700
O632        O  0.74573169  0.99109492  0.47475712    -0.78700
O633        O  0.80703431  0.00311926  0.46064621    -0.78900
C634        C  0.83097822  0.00230132  0.44544349     1.01700
Cr635      Cr  0.78569521  0.93566259  0.40880233     1.93700
Cr636      Cr  0.72209507  0.93589343  0.41130149     1.93200
Cr637      Cr  0.76993147  0.96590751  0.48632036     1.39100
O638        O  0.75908032  0.94512896  0.43607551    -1.24000
O639        O  0.54701540  0.79330674  0.71341481    -0.86200
O640        O  0.58399332  0.81501973  0.79217642    -0.83300
C641        C  0.61460496  0.82810286  0.78386180     0.97300
O642        O  0.62682159  0.85063496  0.75657138    -0.83300
O643        O  0.63487771  0.89921907  0.70014876    -0.85900
C644        C  0.62665058  0.88658721  0.66217574     1.01800
O645        O  0.59761736  0.86591324  0.65406050    -0.78700
O646        O  0.53431790  0.81932234  0.66485190    -0.78900
C647        C  0.53460299  0.79387381  0.67706659     1.01700
O648        O  0.50507905  0.81865283  0.73871648    -0.86200
O649        O  0.54460281  0.84535593  0.81006533    -0.83300
C650        C  0.56824062  0.86203302  0.83485674     0.97300
O651        O  0.59672224  0.87097469  0.82130875    -0.83300
O652        O  0.59762621  0.91295949  0.76548337    -0.85900
C653        C  0.59761893  0.92918079  0.73396423     1.01700
O654        O  0.58879020  0.91568243  0.69663577    -0.78700
O655        O  0.52616695  0.86783999  0.71393407    -0.78900
C656        C  0.50166187  0.84231176  0.72615275     1.01700
Cr657      Cr  0.54700393  0.82004733  0.76189067     1.93700
Cr658      Cr  0.61177458  0.88186408  0.75868513     1.93200
Cr659      Cr  0.56237939  0.86635107  0.68565000     1.39100
O660        O  0.57410116  0.85540775  0.73451245    -1.24000
O661        O  0.15154413  0.94872002  0.99360582    -0.86200
O662        O  0.19809799  0.93268708  0.01073022    -0.83300
C663        C  0.22281786  0.92972738  0.00894679     0.97300
O664        O  0.24005691  0.93912449  0.97481074    -0.83300
O665        O  0.19824624  0.90097607  0.90755790    -0.85900
C666        C  0.17837243  0.89214112  0.87594657     1.01800
O667        O  0.16551202  0.90934070  0.86521264    -0.78700
O668        O  0.13262034  0.91848384  0.93489911    -0.78900
C669        C  0.12884817  0.92441447  0.97389031     1.01700
O670        O  0.20413291  0.01055883  0.96115114    -0.86200
O671        O  0.25077467  0.99756541  0.98499695    -0.83300
C672        C  0.26937691  0.00801585  0.95192709     0.97300
O673        O  0.25994756  0.99359959  0.91624925    -0.83300
O674        O  0.22578219  0.95440160  0.85056603    -0.85900
C675        C  0.21641873  0.97179308  0.83194080     1.01700
O676        O  0.19713106  0.97878071  0.85073770    -0.78700
O677        O  0.16130677  0.98683549  0.91831843    -0.78900
C678        C  0.18087938  0.01079747  0.94220574     1.01700
Cr679      Cr  0.20074323  0.97114674  0.98381440     1.93700
Cr680      Cr  0.22877105  0.94749785  0.91404969     1.93200
Cr681      Cr  0.16621933  0.94886509  0.89474666     1.39100
O682        O  0.19794932  0.95528143  0.93098701    -1.24000
O683        O  0.28979982  0.81990934  0.16446754    -0.86200
O684        O  0.27470117  0.86757071  0.15414304    -0.83300
C685        C  0.26898363  0.89005067  0.16084144     0.97300
O686        O  0.27402946  0.90253159  0.19879521    -0.83300
O687        O  0.23096610  0.85322275  0.25142177    -0.85900
C688        C  0.21904087  0.83054029  0.27830875     1.01800
O689        O  0.23525083  0.81647901  0.28800791    -0.78700
O690        O  0.24987388  0.79469719  0.21127632    -0.78900
C691        C  0.26339291  0.79470739  0.17604132     1.01700
O692        O  0.34692772  0.86644190  0.21484915    -0.86200
O693        O  0.33454117  0.91670059  0.19785744    -0.83300
C694        C  0.33880028  0.93052172  0.23500835     0.97300
O695        O  0.32307601  0.91400995  0.26661809    -0.83300
O696        O  0.27921328  0.87111002  0.32026039    -0.85900
C697        C  0.29782927  0.86124519  0.33474149     1.01700
O698        O  0.30426993  0.84394953  0.31076110    -0.78700
O699        O  0.31639058  0.81719117  0.23907391    -0.78900
C700        C  0.34402629  0.83995711  0.22643744     1.01700
Cr701      Cr  0.31021080  0.86701438  0.18586656     1.93700
Cr702      Cr  0.27736739  0.88353496  0.25741370     1.93200
Cr703      Cr  0.27684628  0.82015750  0.26071194     1.39100
O704        O  0.28757013  0.85644713  0.23412572    -1.24000
O705        O  0.37738581  0.86671897  0.67361146    -0.86200
O706        O  0.38928783  0.92839317  0.68419887    -0.83300
C707        C  0.39554406  0.95648686  0.67567546     0.97300
O708        O  0.38955373  0.96326291  0.63766109    -0.83300
O709        O  0.43259098  0.95763558  0.58242166    -0.85900
C710        C  0.44371154  0.94673081  0.55422338     1.01800
O711        O  0.42788790  0.91626859  0.54610655    -0.78700
O712        O  0.41611539  0.88100031  0.62460354    -0.78900
C713        C  0.40419712  0.86871775  0.66109940     1.01700
O714        O  0.31845763  0.85482421  0.62415049    -0.86200
O715        O  0.32845997  0.91598595  0.64064721    -0.83300
C716        C  0.32289617  0.92341081  0.60269491     0.97300
O717        O  0.33885980  0.92193166  0.57183571    -0.83300
O718        O  0.38252476  0.92509686  0.51646532    -0.85900
C719        C  0.36465575  0.89654934  0.50246219     1.01700
O720        O  0.35853975  0.87349014  0.52746075    -0.78700
O721        O  0.34899318  0.83607333  0.59946274    -0.78900
C722        C  0.32118950  0.83146307  0.61135444     1.01700
Cr723      Cr  0.35475278  0.89200520  0.65253360     1.93700
Cr724      Cr  0.38536818  0.94002728  0.57924259     1.93200
Cr725      Cr  0.38758314  0.87839369  0.57626180     1.39100
O726        O  0.37708454  0.90391257  0.60368406    -1.24000
O727        O  0.51199404  0.12502703  0.83455661    -0.86200
O728        O  0.46095282  0.06362098  0.82285721    -0.83300
C729        C  0.43828149  0.03566968  0.83088315     0.97300
O730        O  0.42589548  0.02873687  0.86883337    -0.83300
O731        O  0.47484493  0.03359847  0.92341181    -0.85900
C732        C  0.49694987  0.04399183  0.95191560     1.01800
O733        O  0.51226379  0.07427878  0.96116487    -0.78700
O734        O  0.53673850  0.11094203  0.88369702    -0.78900
C735        C  0.53704903  0.12356493  0.84736559     1.01700
O736        O  0.46631586  0.13799503  0.88356385    -0.86200
O737        O  0.41433490  0.07742089  0.86660970    -0.83300
C738        C  0.40086910  0.06925832  0.90397555     0.97300
O739        O  0.41701210  0.06845464  0.93539956    -0.83300
O740        O  0.45783692  0.06512638  0.99037713    -0.85900
C741        C  0.46835729  0.09343827  0.00478947     1.01700
O742        O  0.48625071  0.11700014  0.98087794    -0.78700
O743        O  0.51549934  0.15571386  0.90940586    -0.78900
C744        C  0.49307915  0.16110043  0.89599397     1.01700
Cr745      Cr  0.46420253  0.10035672  0.85509397     1.93700
Cr746      Cr  0.44561608  0.05114125  0.92738098     1.93200
Cr747      Cr  0.51058160  0.11278556  0.93202171     1.39100
O748        O  0.47411674  0.08774932  0.90391678    -1.24000
O749        O  0.22725776  0.06581413  0.49742695    -0.86200
O750        O  0.27390354  0.04772438  0.48534297    -0.83300
C751        C  0.29880420  0.07397572  0.49599169     0.97300
O752        O  0.30399670  0.08275607  0.53563329    -0.83300
O753        O  0.29281273  0.08300022  0.62484271    -0.85900
C754        C  0.28037342  0.10024230  0.63198856     1.01800
O755        O  0.25116660  0.09110226  0.61962293    -0.78700
O756        O  0.19960622  0.06226990  0.55698328    -0.78900
C757        C  0.20935553  0.07360544  0.51895258     1.01700
O758        O  0.18311677  0.00527271  0.52345808    -0.86200
O759        O  0.23178314  0.98583080  0.52860553    -0.83300
C760        C  0.25918824  0.98871701  0.53824320     0.97300
O761        O  0.28299780  0.01659888  0.54344074    -0.83300
O762        O  0.26578799  0.01572275  0.62871722    -0.85900
C763        C  0.24595938  0.01380928  0.65755290     1.01700
O764        O  0.22991720  0.02819490  0.65369217    -0.78700
O765        O  0.18149529  0.99706477  0.59187987    -0.78900
C766        C  0.17039613  0.98627038  0.55406023     1.01700
Cr767      Cr  0.23018437  0.02675330  0.51256167     1.93700
Cr768      Cr  0.28326892  0.04908563  0.58198493     1.93200
Cr769      Cr  0.21715993  0.04454784  0.60271026     1.39100
O770        O  0.24395693  0.04140245  0.56600791    -1.24000
O771        O  0.47045457  0.18038657  0.33556213    -0.86200
O772        O  0.40893204  0.13414144  0.35084535    -0.83300
C773        C  0.37991721  0.11279823  0.34537251     0.97300
O774        O  0.37012009  0.09825734  0.30878336    -0.83300
O775        O  0.37815596  0.14277121  0.24653690    -0.85900
C776        C  0.38868567  0.16122315  0.21444097     1.01800
O777        O  0.41895379  0.17397473  0.20523573    -0.78700
O778        O  0.45529688  0.20200295  0.28349907    -0.78900
C779        C  0.46779312  0.20404803  0.32078331     1.01700
O780        O  0.47879273  0.12926437  0.29289396    -0.86200
O781        O  0.41741186  0.08198522  0.31635971    -0.83300
C782        C  0.40640218  0.06452183  0.28210174     0.97300
O783        O  0.40270948  0.07639476  0.24789643    -0.83300
O784        O  0.40675757  0.11673450  0.18535809    -0.85900
C785        C  0.43560913  0.12627400  0.17217380     1.01700
O786        O  0.45928114  0.14455226  0.19600149    -0.78700
O787        O  0.49877089  0.17722798  0.26432518    -0.78900
C788        C  0.50265927  0.15427421  0.27827761     1.01700
Cr789      Cr  0.44326677  0.13188953  0.32053545     1.93700
Cr790      Cr  0.39175891  0.11044415  0.24887506     1.93200
Cr791      Cr  0.45626894  0.17257395  0.23927992     1.39100
O792        O  0.43012886  0.13853589  0.27007034    -1.24000
C793        C  0.33141678  0.10741124  0.38467637    -0.02700
C794        C  0.35903424  0.10382085  0.38413606     0.07000
C795        C  0.36963167  0.09581010  0.42307152    -0.02800
C796        C  0.35208407  0.09054018  0.46187899    -0.02800
C797        C  0.32277473  0.09120563  0.46144744     0.07100
C798        C  0.31292384  0.10043282  0.42298499    -0.03000
Br799      Br  0.27435379  0.10410042  0.42266236    -0.01600
Br800      Br  0.31990046  0.12324849  0.33358652    -0.01600
Br801      Br  0.36742544  0.08088282  0.51520653    -0.01600
Br802      Br  0.40717983  0.08997193  0.42309901    -0.01600
C803        C  0.42935671  0.07932290  0.06822686    -0.02700
C804        C  0.46020498  0.09960707  0.04924696     0.07000
C805        C  0.48278320  0.12793939  0.07155448    -0.02800
C806        C  0.47337269  0.13797032  0.10894405    -0.02800
C807        C  0.44285902  0.11730058  0.12887802     0.07100
C808        C  0.42131282  0.08741037  0.10875176    -0.03000
Br809      Br  0.38123129  0.05643508  0.13677676    -0.01600
Br810      Br  0.39706305  0.04079421  0.03899557    -0.01600
Br811      Br  0.50248081  0.18156872  0.12972560    -0.01600
Br812      Br  0.52791909  0.15231196  0.05338586    -0.01600
C813        C  0.26927536  0.92532101  0.59845149    -0.02700
C814        C  0.30307226  0.93887991  0.59085365     0.07000
C815        C  0.31759981  0.96379456  0.55956162    -0.02800
C816        C  0.29860489  0.97094540  0.53199367    -0.02800
C817        C  0.26678438  0.96221008  0.54408007     0.07100
C818        C  0.25141867  0.93790429  0.57609299    -0.03000
Br819      Br  0.20567744  0.92015326  0.58561144    -0.01600
Br820      Br  0.24823668  0.89129838  0.64037685    -0.01600
Br821      Br  0.31733376  0.99666365  0.48018675    -0.01600
Br822      Br  0.36421353  0.99137230  0.55757318    -0.01600
C823        C  0.43727161  0.98696908  0.73319985    -0.02700
C824        C  0.40774702  0.97989796  0.71238363     0.07000
C825        C  0.38690391  0.98897034  0.73284448    -0.02800
C826        C  0.39580528  0.00537191  0.77334137    -0.02800
C827        C  0.42541947  0.01250480  0.79394983     0.07100
C828        C  0.44579813  0.00273068  0.77401469    -0.03000
Br829      Br  0.48473052  0.00964985  0.80399697    -0.01600
Br830      Br  0.46649371  0.97562630  0.70503092    -0.01600
Br831      Br  0.36744229  0.01821552  0.80044972    -0.01600
Br832      Br  0.34554437  0.97787922  0.70631705    -0.01600
C833        C  0.32353742  0.90093450  0.39709235    -0.02700
C834        C  0.31291005  0.86999471  0.37902596     0.07000
C835        C  0.32090350  0.84876849  0.40086384    -0.02800
C836        C  0.34063933  0.85892624  0.43847091    -0.02800
C837        C  0.35018138  0.88933671  0.45763753     0.07100
C838        C  0.34271849  0.91081243  0.43545328    -0.03000
Br839      Br  0.36026932  0.95478362  0.45481490    -0.01600
Br840      Br  0.31233004  0.93061034  0.37016644    -0.01600
Br841      Br  0.35751908  0.83199635  0.46003839    -0.01600
Br842      Br  0.30317435  0.80444255  0.38171484    -0.01600
C843        C  0.34133615  0.97932797  0.26731056    -0.02700
C844        C  0.35738270  0.96594322  0.24350573     0.07000
C845        C  0.39132509  0.98457532  0.23800870    -0.02800
C846        C  0.40881339  0.01612204  0.25602582    -0.02800
C847        C  0.39279488  0.02905140  0.28057721     0.07100
C848        C  0.35910680  0.00968068  0.28757117    -0.03000
Br849      Br  0.33673466  0.02506822  0.32419774    -0.01600
Br850      Br  0.29419265  0.95718704  0.26987951    -0.01600
Br851      Br  0.45499905  0.04172311  0.24809156    -0.01600
Br852      Br  0.41349374  0.96712621  0.20521541    -0.01600
C853        C  0.25789582  0.00234981  0.77467252    -0.02700
C854        C  0.22538311  0.98048091  0.78627664     0.07000
C855        C  0.20177153  0.96409100  0.75367576    -0.02800
C856        C  0.20972524  0.97224149  0.70987124    -0.02800
C857        C  0.24153260  0.99614315  0.69835251     0.07100
C858        C  0.26615015  0.00946497  0.73046004    -0.03000
Br859      Br  0.31064675  0.03861578  0.71387396    -0.01600
Br860      Br  0.29043153  0.02455180  0.81921161    -0.01600
Br861      Br  0.17655816  0.95106754  0.66588089    -0.01600
Br862      Br  0.15841667  0.93040404  0.76883434    -0.01600
C863        C  0.31786494  0.06013437  0.92925761    -0.02700
C864        C  0.30449151  0.03149249  0.95434128     0.07000
C865        C  0.32357753  0.01735248  0.96247508    -0.02800
C866        C  0.35128699  0.02622624  0.93753478    -0.02800
C867        C  0.36571486  0.05526722  0.91336225     0.07100
C868        C  0.34956604  0.07325748  0.91135021    -0.03000
Br869      Br  0.37090685  0.11544045  0.88534595    -0.01600
Br870      Br  0.29273403  0.08117738  0.92040603    -0.01600
Br871      Br  0.36822477  0.99705909  0.93521336    -0.01600
Br872      Br  0.31057256  0.98432580  0.00615261    -0.01600
C873        C  0.22568534  0.92398519  0.09111457    -0.02700
C874        C  0.23339790  0.91859711  0.04819344     0.07000
C875        C  0.25379386  0.90512582  0.04338667    -0.02800
C876        C  0.26800436  0.89942620  0.08023181    -0.02800
C877        C  0.25817056  0.90213102  0.12293528     0.07100
C878        C  0.23713103  0.91481112  0.12803398    -0.03000
Br879      Br  0.22376614  0.92013039  0.18539506    -0.01600
Br880      Br  0.20063174  0.94527680  0.10122644    -0.01600
Br881      Br  0.30404782  0.89180115  0.07095996    -0.01600
Br882      Br  0.26139653  0.89244255  0.98663720    -0.01600
C883        C  0.45010274  0.82365233  0.68310694    -0.02700
C884        C  0.46935590  0.84038483  0.71972641     0.07000
C885        C  0.46250002  0.86238097  0.74161508    -0.02800
C886        C  0.43770804  0.86837825  0.72604551    -0.02800
C887        C  0.42142564  0.85464142  0.68630223     0.07100
C888        C  0.42713703  0.83141612  0.66577085    -0.03000
Br889      Br  0.40520430  0.81170835  0.61152786    -0.01600
Br890      Br  0.45787538  0.79274966  0.65317851    -0.01600
Br891      Br  0.42769706  0.89712317  0.75744802    -0.01600
Br892      Br  0.48925304  0.88655804  0.79074270    -0.01600
C893        C  0.66726306  0.88291901  0.55803537    -0.02700
C894        C  0.68143890  0.91493256  0.54327984     0.07000
C895        C  0.67919630  0.93816580  0.56915869    -0.02800
C896        C  0.66309185  0.92943812  0.60963272    -0.02800
C897        C  0.64936459  0.89745306  0.62481179     0.07100
C898        C  0.65159929  0.87426485  0.59874226    -0.03000
Br899      Br  0.63413396  0.83068721  0.61942837    -0.01600
Br900      Br  0.66898155  0.85086075  0.52170438    -0.01600
Br901      Br  0.65861043  0.96112626  0.64315412    -0.01600
Br902      Br  0.69820809  0.98215122  0.54947371    -0.01600
C903        C  0.60161585  0.13851524  0.76152900    -0.02700
C904        C  0.63064639  0.15785741  0.78551179     0.07000
C905        C  0.62833410  0.17100713  0.82557145    -0.02800
C906        C  0.59761918  0.16149663  0.84411421    -0.02800
C907        C  0.56846936  0.13903520  0.82248514     0.07100
C908        C  0.57064882  0.12927861  0.77974130    -0.03000
Br909      Br  0.53137552  0.10084501  0.74790478    -0.01600
Br910      Br  0.60463804  0.12304397  0.70474939    -0.01600
Br911      Br  0.59577777  0.17833021  0.90063554    -0.01600
Br912      Br  0.66749231  0.19944148  0.85764490    -0.01600
C913        C  0.60758956  0.01296219  0.74850631    -0.02700
C914        C  0.63246627  0.02567249  0.78090709     0.07000
C915        C  0.64469529  0.00622209  0.79635587    -0.02800
C916        C  0.63743868  0.97794110  0.77400864    -0.02800
C917        C  0.61127656  0.96399583  0.74361719     0.07100
C918        C  0.59553954  0.98129414  0.73196976    -0.03000
Br919      Br  0.55797728  0.96188110  0.69398242    -0.01600
Br920      Br  0.59056483  0.03929301  0.72656259    -0.01600
Br921      Br  0.66605836  0.96031383  0.78225070    -0.01600
Br922      Br  0.67229039  0.01843889  0.84735336    -0.01600
C923        C  0.75413163  0.98321626  0.27039306    -0.02700
C924        C  0.77310763  0.97127393  0.28975724     0.07000
C925        C  0.80163441  0.97643848  0.26833672    -0.02800
C926        C  0.81317885  0.99645014  0.23139669    -0.02800
C927        C  0.79442192  0.00882282  0.21186775     0.07100
C928        C  0.76471332  0.00200742  0.23204631    -0.03000
Br929      Br  0.73783834  0.01848300  0.20897162    -0.01600
Br930      Br  0.71311005  0.97376159  0.29547560    -0.01600
Br931      Br  0.85664378  0.00900689  0.21141723    -0.01600
Br932      Br  0.82372778  0.95360017  0.28696575    -0.01600
C933        C  0.75644772  0.07100776  0.88226545    -0.02700
C934        C  0.74145136  0.08989433  0.88718364     0.07000
C935        C  0.73604305  0.09772757  0.93008324    -0.02800
C936        C  0.74883289  0.08996609  0.96667012    -0.02800
C937        C  0.76292539  0.07040095  0.96160790     0.07100
C938        C  0.76481198  0.05938397  0.91930418    -0.03000
Br939      Br  0.77639927  0.02621455  0.91107681    -0.01600
Br940      Br  0.76721549  0.06173353  0.82528192    -0.01600
Br941      Br  0.74846393  0.10777647  0.02314297    -0.01600
Br942      Br  0.70886276  0.11663815  0.94090186    -0.01600
C943        C  0.65600272  0.07484399  0.56872053    -0.02700
C944        C  0.64992285  0.09745494  0.54675041     0.07000
C945        C  0.65924784  0.12742216  0.56717358    -0.02800
C946        C  0.67802838  0.13628152  0.60544147    -0.02800
C947        C  0.68242064  0.11320713  0.62874137     0.07100
C948        C  0.67043825  0.08206194  0.61063870    -0.03000
Br949      Br  0.67191083  0.04829747  0.64349971    -0.01600
Br950      Br  0.64572351  0.03407383  0.54224978    -0.01600
Br951      Br  0.69958441  0.18126871  0.62306805    -0.01600
Br952      Br  0.64410122  0.15598264  0.54627491    -0.01600
C953        C  0.55893999  0.12162067  0.28289284    -0.02700
C954        C  0.57414747  0.13454865  0.32345739     0.07000
C955        C  0.57229240  0.16075134  0.34145985    -0.02800
C956        C  0.55322122  0.17206371  0.32098335    -0.02800
C957        C  0.53471786  0.15640628  0.28355752     0.07100
C958        C  0.53958082  0.13286111  0.26282678    -0.06600
Br959      Br  0.51825158  0.11533191  0.20765726    -0.01600
Br960      Br  0.56119141  0.08600495  0.25742926    -0.01600
Br961      Br  0.55025050  0.20740996  0.34600902    -0.01600
Br962      Br  0.59425128  0.17999920  0.39576811    -0.01600
C963        C  0.52306399  0.98627708  0.48725455    -0.02700
C964        C  0.52666581  0.01687974  0.47629860     0.07000
C965        C  0.50232492  0.02354806  0.48978073    -0.02800
C966        C  0.47598481  0.00115377  0.51565214    -0.02800
C967        C  0.47234086  0.97052535  0.52700638     0.07100
C968        C  0.49560721  0.96300994  0.51081293    -0.03000
Br969      Br  0.49047892  0.92087167  0.52116161    -0.01600
Br970      Br  0.55665395  0.97610598  0.47307816    -0.01600
Br971      Br  0.44425023  0.01302398  0.53253946    -0.01600
Br972      Br  0.50373525  0.06262210  0.46989790    -0.01600
C973        C  0.72582211  0.07018827  0.42851848    -0.02700
C974        C  0.70105175  0.05847124  0.39597830     0.07000
C975        C  0.68975889  0.02757425  0.37876322    -0.02800
C976        C  0.69743722  0.00650527  0.39999415    -0.02800
C977        C  0.72391946  0.01833013  0.42960794     0.07100
C978        C  0.73890627  0.05082057  0.44303448    -0.03000
Br979      Br  0.77631504  0.06827605  0.48118543    -0.01600
Br980      Br  0.74133510  0.11246096  0.45306343    -0.01600
Br981      Br  0.66804861  0.96074157  0.39317047    -0.01600
Br982      Br  0.66247573  0.01301426  0.32742224    -0.01600
C983        C  0.58677864  0.89616704  0.90429484    -0.02700
C984        C  0.56177368  0.87086250  0.87898334     0.07000
C985        C  0.52926471  0.85518869  0.89499954    -0.02800
C986        C  0.52165625  0.86680312  0.93239195    -0.02800
C987        C  0.54660158  0.89080249  0.95830509     0.07100
C988        C  0.57920832  0.90547719  0.94423403    -0.03000
Br989      Br  0.61398286  0.93769980  0.98008897    -0.01600
Br990      Br  0.63188301  0.91837312  0.88642157    -0.01600
Br991      Br  0.47628436  0.85079846  0.94665573    -0.01600
Br992      Br  0.49437492  0.81553155  0.86985737    -0.01600
C993        C  0.37350639  0.81907361  0.18183601    -0.02700
C994        C  0.37276312  0.83581365  0.21927483     0.07000
C995        C  0.40238972  0.85664932  0.24084842    -0.02800
C996        C  0.43249962  0.86389947  0.22207520    -0.02800
C997        C  0.43312035  0.85133778  0.18064277     0.07100
C998        C  0.40347490  0.82738845  0.16195844    -0.03000
Br999      Br  0.40381211  0.80640644  0.10834254    -0.01600
Br1000     Br  0.33350938  0.78602747  0.15608988    -0.01600
Br1001     Br  0.47262127  0.89260263  0.25184678    -0.01600
Br1002     Br  0.40129911  0.87609382  0.29541351    -0.01600
C1003       C  0.57719498  0.97891402  0.29503641    -0.02700
C1004       C  0.59226999  0.01269621  0.29025631     0.07000
C1005       C  0.59835417  0.02596943  0.24754644    -0.02800
C1006       C  0.58470967  0.00580724  0.21111504    -0.02800
C1007       C  0.57105551  0.97230041  0.21573329     0.07100
C1008       C  0.56942908  0.95921538  0.25781100    -0.03000
Br1009     Br  0.55984987  0.91511646  0.26528183    -0.01600
Br1010     Br  0.56604154  0.95874658  0.35174349    -0.01600
Br1011     Br  0.58333878  0.02451213  0.15580078    -0.01600
Br1012     Br  0.62888677  0.07114680  0.23686798    -0.01600
C1013       C  0.65069714  0.91860706  0.08140416    -0.02700
C1014       C  0.63805702  0.93327288  0.10921581     0.07000
C1015       C  0.65793732  0.96597865  0.12014865    -0.02800
C1016       C  0.68780750  0.98468016  0.09924341    -0.02800
C1017       C  0.70135727  0.97002214  0.07304260     0.07100
C1018       C  0.68288811  0.93656584  0.06508932    -0.03000
Br1019     Br  0.70168692  0.91555787  0.03263260    -0.01600
Br1020     Br  0.62370584  0.87383973  0.06616146    -0.01600
Br1021     Br  0.70916733  0.03115185  0.10507058    -0.01600
Br1022     Br  0.64442017  0.98586307  0.16355592    -0.01600
C1023       C  0.53312822  0.99814568  0.01087783    -0.02700
C1024       C  0.50456947  0.97007896  0.02582259     0.07000
C1025       C  0.47405821  0.96718361  0.01740996    -0.02800
C1026       C  0.47197996  0.99195768  0.99508049    -0.02800
C1027       C  0.50033897  0.01946776  0.97863027     0.07100
C1028       C  0.53092035  0.02244952  0.98724867    -0.03000
Br1029     Br  0.56979759  0.05941840  0.96542510    -0.01600
Br1030     Br  0.57583542  0.00331829  0.02078666    -0.01600
Br1031     Br  0.42993158  0.98888259  0.99118333    -0.01600
Br1032     Br  0.43506332  0.92991464  0.03863099    -0.01600
C1033       C  0.51064027  0.20897193  0.84819725    -0.02700
C1034       C  0.49781695  0.19397121  0.88852319     0.07000
C1035       C  0.48014372  0.20480632  0.91349710    -0.02800
C1036       C  0.47233479  0.22766520  0.89614996    -0.02800
C1037       C  0.48064180  0.23841162  0.85271594     0.07100
C1038       C  0.50177564  0.23063014  0.83013856    -0.03000
Br1039     Br  0.51786845  0.24879391  0.77320175    -0.01600
Br1040     Br  0.53786797  0.19749303  0.81531661    -0.01600
Br1041     Br  0.44906639  0.24284335  0.93100812    -0.01600
Br1042     Br  0.46501328  0.18652075  0.97042205    -0.01600
C1043       C  0.35568086  0.18192199  0.65034632    -0.02700
C1044       C  0.36115785  0.18158719  0.69580246     0.07000
C1045       C  0.33722942  0.15533142  0.72022154    -0.02800
C1046       C  0.30833956  0.13071178  0.70014520    -0.02800
C1047       C  0.30273879  0.13132246  0.65493449     0.07100
C1048       C  0.32673615  0.15720928  0.63034081    -0.03000
Br1049     Br  0.31986200  0.15817926  0.56840036    -0.01600
Br1050     Br  0.38788311  0.21590284  0.61471691    -0.01600
Br1051     Br  0.27629168  0.09537918  0.73449818    -0.01600
Br1052     Br  0.34530128  0.15174633  0.78104210    -0.01600
C1053       C  0.19320434  0.09558463  0.94273970    -0.02700
C1054       C  0.18969011  0.09921838  0.98783705     0.07000
C1055       C  0.17468530  0.07140852  0.01399886    -0.02800
C1056       C  0.17075424  0.04215202  0.99846631    -0.02800
C1057       C  0.17618809  0.03840699  0.95399745     0.07100
C1058       C  0.18599951  0.06501056  0.92575834    -0.03000
Br1059     Br  0.19411370  0.06060006  0.86542386    -0.01600
Br1060     Br  0.20950067  0.13247289  0.90492708    -0.01600
Br1061     Br  0.16502160  0.01036794  0.04149887    -0.01600
Br1062     Br  0.16042260  0.07357136  0.07239929    -0.01600
C1063       C  0.34770991  0.22306947  0.89926179    -0.02700
C1064       C  0.35044124  0.24806889  0.87184902     0.07000
C1065       C  0.33494923  0.26562497  0.88346858    -0.02800
C1066       C  0.31669809  0.25798663  0.92194420    -0.02800
C1067       C  0.31504272  0.23381967  0.94977246     0.07100
C1068       C  0.33045241  0.21633771  0.93848956    -0.03000
Br1069     Br  0.32802545  0.18337574  0.97719259    -0.01600
Br1070     Br  0.36726601  0.19762569  0.88307901    -0.01600
Br1071     Br  0.29410914  0.28086984  0.93669449    -0.01600
Br1072     Br  0.34076418  0.30201029  0.84940249    -0.01600
C1073       C  0.33373307  0.13511826  0.17570626    -0.02700
C1074       C  0.36425683  0.16330044  0.18493776     0.07000
C1075       C  0.37072748  0.19259017  0.16570338    -0.02800
C1076       C  0.34682613  0.19415922  0.13944824    -0.02800
C1077       C  0.31508132  0.16655206  0.13365047     0.07100
C1078       C  0.30909960  0.13698410  0.15159881    -0.03000
Br1079     Br  0.26774480  0.09834867  0.14080162    -0.01600
Br1080     Br  0.32610713  0.09286381  0.19220616    -0.01600
Br1081     Br  0.35872230  0.23524101  0.11272506    -0.01600
Br1082     Br  0.41207624  0.23116502  0.17677079    -0.01600
C1083       C  0.41076554  0.38630677  0.76191198    -0.02700
C1084       C  0.39296393  0.35236904  0.75833334     0.07000
C1085       C  0.36334047  0.33773792  0.73433858    -0.02800
C1086       C  0.35242607  0.35661657  0.71335875    -0.02800
C1087       C  0.36791652  0.39002427  0.72086304     0.07100
C1088       C  0.39800187  0.40501289  0.74363007    -0.03000
Br1089     Br  0.42309722  0.45132254  0.74484096    -0.01600
Br1090     Br  0.45245665  0.40688897  0.79112942    -0.01600
Br1091     Br  0.31694624  0.33643971  0.67230817    -0.01600
Br1092     Br  0.33640110  0.29117742  0.73071112    -0.01600
C1093       C  0.23912530  0.20739083  0.28797423    -0.02700
C1094       C  0.22562081  0.22772509  0.29233622     0.07000
C1095       C  0.22116817  0.24217816  0.25486908    -0.02800
C1096       C  0.23033195  0.23654768  0.21372188    -0.02800
C1097       C  0.24166543  0.21453774  0.20901455     0.07100
C1098       C  0.24681177  0.20054798  0.24637281    -0.03000
Br1099     Br  0.26397411  0.17170686  0.24024077    -0.01600
Br1100     Br  0.24740517  0.18907491  0.33883113    -0.01600
Br1101     Br  0.22900115  0.26049969  0.16426394    -0.01600
Br1102     Br  0.19951107  0.26714988  0.25890549    -0.01600
C1103       C  0.18023282  0.11687839  0.44011653    -0.02700
C1104       C  0.17906891  0.13934886  0.46856070     0.07000
C1105       C  0.18416707  0.13736465  0.51355023    -0.02800
C1106       C  0.19694688  0.11832408  0.52864898    -0.02800
C1107       C  0.19880471  0.09591726  0.50053618     0.07100
C1108       C  0.18849993  0.09408698  0.45646484    -0.03000
Br1109     Br  0.18457807  0.06013683  0.41871140    -0.01600
Br1110     Br  0.17112700  0.11795870  0.37911389    -0.01600
Br1111     Br  0.21617869  0.12725438  0.58637411    -0.01600
Br1112     Br  0.17488745  0.16207482  0.55498179    -0.01600
C1113       C  0.24139880  0.32184123  0.62375704    -0.02700
C1114       C  0.26123929  0.35550226  0.62058251     0.07000
C1115       C  0.27271596  0.36976301  0.57902861    -0.02800
C1116       C  0.26155169  0.35084201  0.54092746    -0.02800
C1117       C  0.24265246  0.31703386  0.54424359     0.07100
C1118       C  0.23416107  0.30259399  0.58628846    -0.03000
Br1119     Br  0.21520938  0.25645988  0.59468749    -0.01600
Br1120     Br  0.22308799  0.30160288  0.67910305    -0.01600
Br1121     Br  0.27169084  0.37173220  0.48461435    -0.01600
Br1122     Br  0.30634854  0.41457516  0.57337639    -0.01600
C1123       C  0.37447969  0.45501645  0.92591948    -0.02700
C1124       C  0.35518853  0.44067127  0.96284945     0.07000
C1125       C  0.32179338  0.41805055  0.95751329    -0.02800
C1126       C  0.30684789  0.41283467  0.91619868    -0.02800
C1127       C  0.32577375  0.42909169  0.87955593     0.07100
C1128       C  0.35985457  0.44869130  0.88429520    -0.03000
Br1129     Br  0.38667229  0.46574175  0.83361758    -0.01600
Br1130     Br  0.42074814  0.48394866  0.93254101    -0.01600
Br1131     Br  0.26019928  0.38524263  0.91081697    -0.01600
Br1132     Br  0.29674256  0.39338612  0.00649926    -0.01600
C1133       C  0.27613829  0.34620001  0.09993174    -0.02700
C1134       C  0.30849943  0.36052506  0.11605445     0.07000
C1135       C  0.32618583  0.34450112  0.10901932    -0.02800
C1136       C  0.31440649  0.31847107  0.08031554    -0.02800
C1137       C  0.28155704  0.30249966  0.06688816     0.07100
C1138       C  0.26217020  0.31632809  0.07705344    -0.03000
Br1139     Br  0.21716962  0.29454476  0.05889531    -0.01600
Br1140     Br  0.25147322  0.36765301  0.10896941    -0.01600
Br1141     Br  0.34366943  0.30421498  0.06001816    -0.01600
Br1142     Br  0.36821206  0.35954012  0.13605142    -0.01600
C1143       C  0.48780784  0.33960653  0.56953048    -0.02700
C1144       C  0.46698681  0.34901951  0.54915601     0.07000
C1145       C  0.43611219  0.33905934  0.56771617    -0.02800
C1146       C  0.42634883  0.32030258  0.60598110    -0.02800
C1147       C  0.44656583  0.30966310  0.62516794     0.07100
C1148       C  0.47703365  0.31874000  0.60562990    -0.03000
Br1149     Br  0.50418009  0.30159450  0.62602620    -0.01600
Br1150     Br  0.53252959  0.35717826  0.55085012    -0.01600
Br1151     Br  0.38556065  0.31087423  0.63222036    -0.01600
Br1152     Br  0.40604636  0.35010258  0.54111461    -0.01600
C1153       C  0.46820084  0.23734373  0.38581271    -0.02700
C1154       C  0.48104647  0.23542552  0.34514711     0.07000
C1155       C  0.50406150  0.26446501  0.32476296    -0.02800
C1156       C  0.51201400  0.29480960  0.34278005    -0.02800
C1157       C  0.49688597  0.29671313  0.38132179     0.07100
C1158       C  0.47598807  0.26779247  0.40360370    -0.03000
Br1159     Br  0.45683868  0.27019334  0.45778705    -0.01600
Br1160     Br  0.43751540  0.19835204  0.41524647    -0.01600
Br1161     Br  0.54164799  0.33375427  0.31235217    -0.01600
Br1162     Br  0.52395777  0.26267225  0.27082472    -0.01600
C1163       C  0.40292221  0.40245155  0.29350492    -0.02700
C1164       C  0.43583809  0.42119575  0.30677565     0.07000
C1165       C  0.45722560  0.44845384  0.28180256    -0.02800
C1166       C  0.44606911  0.45614285  0.24331202    -0.02800
C1167       C  0.41373185  0.43620588  0.22888522     0.07100
C1168       C  0.39194349  0.40999845  0.25486419    -0.03000
Br1169     Br  0.34664508  0.38458113  0.23816429    -0.01600
Br1170     Br  0.37289310  0.36500251  0.32631699    -0.01600
Br1171     Br  0.47490931  0.49405390  0.21019835    -0.01600
Br1172     Br  0.50179528  0.47557679  0.30052407    -0.01600
C1173       C  0.35618674  0.28054367  0.40827756    -0.02700
C1174       C  0.37226813  0.31413334  0.41488852     0.07000
C1175       C  0.35810377  0.32731845  0.44267325    -0.02800
C1176       C  0.32975998  0.30707214  0.46576405    -0.02800
C1177       C  0.31157697  0.27422043  0.45524104     0.07100
C1178       C  0.32577554  0.26068499  0.42836750    -0.03000
Br1179     Br  0.30472191  0.21456485  0.42357972    -0.01600
Br1180     Br  0.37554009  0.26208696  0.37164543    -0.01600
Br1181     Br  0.31673869  0.32419042  0.51334389    -0.01600
Br1182     Br  0.37679182  0.37359657  0.44832084    -0.01600
C1183       C  0.53895021  0.39364820  0.76583486    -0.02700
C1184       C  0.53362529  0.36463820  0.78545632     0.07000
C1185       C  0.55292492  0.36664105  0.82184378    -0.02800
C1186       C  0.57455947  0.39691841  0.84111031    -0.02800
C1187       C  0.57808963  0.42585775  0.82344377     0.07100
C1188       C  0.56094150  0.42403877  0.78467938    -0.03000
Br1189     Br  0.56395970  0.46265710  0.76065615    -0.01600
Br1190     Br  0.51350440  0.39121477  0.71496717    -0.01600
Br1191     Br  0.59726236  0.39832464  0.89430915    -0.01600
Br1192     Br  0.54688094  0.32757040  0.84860710    -0.01600
C1193       C  0.52436135  0.52130348  0.98732862    -0.02700
C1194       C  0.52626937  0.49296389  0.97894650     0.07000
C1195       C  0.50354991  0.46410911  0.99950736    -0.02800
C1196       C  0.47915235  0.46333145  0.02700042    -0.02800
C1197       C  0.47624800  0.49138348  0.03330128     0.07100
C1198       C  0.49938126  0.52033158  0.01352204    -0.03000
Br1199     Br  0.49830705  0.55953166  0.02499464    -0.01600
Br1200     Br  0.55725523  0.56284463  0.96623978    -0.01600
Br1201     Br  0.44954376  0.42285164  0.05478539    -0.01600
Br1202     Br  0.50482321  0.42503825  0.98823879    -0.01600
C1203       C  0.40968060  0.56353249  0.65451865    -0.02700
C1204       C  0.43790726  0.57654411  0.68111834     0.07000
C1205       C  0.43365737  0.57187550  0.72685816    -0.02800
C1206       C  0.40269093  0.54906140  0.74391715    -0.02800
C1207       C  0.37572930  0.53172395  0.71579684     0.07100
C1208       C  0.37898408  0.54132340  0.67166938    -0.03000
Br1209     Br  0.34143539  0.52387223  0.63379868    -0.01600
Br1210     Br  0.41261491  0.57738549  0.59456853    -0.01600
Br1211     Br  0.39674377  0.54155603  0.80560698    -0.01600
Br1212     Br  0.46943804  0.59651431  0.76640498    -0.01600
C1213       C  0.52225042  0.73075564  0.59248329    -0.02700
C1214       C  0.50435674  0.70247542  0.61739466     0.07000
C1215       C  0.48870500  0.70413006  0.65536447    -0.02800
C1216       C  0.49601477  0.73435188  0.67260635    -0.02800
C1217       C  0.51844337  0.76318474  0.65135246     0.07100
C1218       C  0.52874371  0.76108355  0.60900897    -0.03000
Br1219     Br  0.55282746  0.79951516  0.57476005    -0.01600
Br1220     Br  0.53910481  0.72767313  0.53684280    -0.01600
Br1221     Br  0.47613182  0.73631512  0.72643237    -0.01600
Br1222     Br  0.45952967  0.66507410  0.68588720    -0.01600
C1223       C  0.52762941  0.53473784  0.48803529    -0.02700
C1224       C  0.51757053  0.53256134  0.53195749     0.07000
C1225       C  0.50939489  0.50385274  0.55485322    -0.02800
C1226       C  0.51037890  0.47771896  0.53405171    -0.02800
C1227       C  0.51920979  0.47953576  0.48950974     0.07100
C1228       C  0.52798822  0.50848267  0.46713176    -0.03000
Br1229     Br  0.54096482  0.51207804  0.40705944    -0.01600
Br1230     Br  0.54234259  0.57400968  0.45590510    -0.01600
Br1231     Br  0.49858567  0.43922420  0.56694848    -0.01600
Br1232     Br  0.49529098  0.49991334  0.61459639    -0.01600
C1233       C  0.61316363  0.57490143  0.75086979    -0.02700
C1234       C  0.59158940  0.56239197  0.78644324     0.07000
C1235       C  0.56023724  0.55832519  0.78294042    -0.02800
C1236       C  0.55119742  0.56841295  0.74496393    -0.02800
C1237       C  0.57458413  0.58622845  0.71261573     0.07100
C1238       C  0.60477042  0.58673684  0.71391165    -0.03000
Br1239     Br  0.63367345  0.60032311  0.66457225    -0.01600
Br1240     Br  0.65483073  0.57653045  0.75282617    -0.01600
Br1241     Br  0.50541164  0.55204974  0.73410538    -0.01600
Br1242     Br  0.52918298  0.53739433  0.82916069    -0.01600
C1243       C  0.53261188  0.65107403  0.38886798    -0.02700
C1244       C  0.56232265  0.67897578  0.37789592     0.07000
C1245       C  0.58748401  0.69282433  0.40971636    -0.02800
C1246       C  0.58334595  0.67779970  0.45036268    -0.02800
C1247       C  0.55235958  0.65281709  0.46258080     0.07100
C1248       C  0.52683240  0.63962807  0.43181544    -0.03000
Br1249     Br  0.48437288  0.60428833  0.44763898    -0.01600
Br1250     Br  0.50077626  0.62586929  0.34515427    -0.01600
Br1251     Br  0.62049640  0.69094595  0.48818055    -0.01600
Br1252     Br  0.62648281  0.73391298  0.40089997    -0.01600
C1253       C  0.44113522  0.60547839  0.23433071    -0.02700
C1254       C  0.46101131  0.63163729  0.20716586     0.07000
C1255       C  0.45516100  0.62717090  0.16186776    -0.02800
C1256       C  0.43603686  0.59603549  0.14392837    -0.02800
C1257       C  0.42190300  0.56855162  0.17138260     0.07100
C1258       C  0.42274264  0.57376613  0.21702220    -0.03000
Br1259     Br  0.40089853  0.53802405  0.25656484    -0.01600
Br1260     Br  0.43407783  0.61457377  0.29275567    -0.01600
Br1261     Br  0.42939663  0.59187674  0.08134020    -0.01600
Br1262     Br  0.47284920  0.66413902  0.12415868    -0.01600
C1263       C  0.50062217  0.75939720  0.17384229    -0.02700
C1264       C  0.52503455  0.75487096  0.15457933     0.07000
C1265       C  0.53651537  0.76759517  0.11272566    -0.02800
C1266       C  0.52638429  0.78778005  0.09282425    -0.02800
C1267       C  0.50521693  0.79562809  0.11480197     0.07100
C1268       C  0.49045530  0.77934229  0.15367625    -0.03000
Br1269     Br  0.45833031  0.78661069  0.18143655    -0.01600
Br1270     Br  0.48196226  0.73942919  0.22900680    -0.01600
Br1271     Br  0.54257339  0.80640658  0.03635859    -0.01600
Br1272     Br  0.56862876  0.76037382  0.08477751    -0.01600
C1273       C  0.67394328  0.79894448  0.32226974    -0.02700
C1274       C  0.64510987  0.79843406  0.30725739     0.07000
C1275       C  0.64090547  0.82473701  0.31757457    -0.02800
C1276       C  0.66454459  0.85077992  0.34283215    -0.02800
C1277       C  0.69304823  0.85108643  0.35878764     0.07100
C1278       C  0.69737717  0.82483830  0.34828456    -0.03000
Br1279     Br  0.73420272  0.82316358  0.37251159    -0.01600
Br1280     Br  0.68141831  0.76363158  0.30933068    -0.01600
Br1281     Br  0.65747587  0.88651951  0.35350388    -0.01600
Br1282     Br  0.60350442  0.82613471  0.29458616    -0.01600
C1283       C  0.83522316  0.92445411  0.98647540    -0.02700
C1284       C  0.81288528  0.89572155  0.00807209     0.07000
C1285       C  0.80242023  0.89815647  0.05026714    -0.02800
C1286       C  0.81134430  0.92878354  0.06832207    -0.02800
C1287       C  0.83092134  0.95735239  0.04471977     0.07100
C1288       C  0.84394254  0.95498336  0.00447021    -0.03000
Br1289     Br  0.87133207  0.99347887  0.97166608    -0.01600
Br1290     Br  0.85370237  0.92203612  0.93157200    -0.01600
Br1291     Br  0.79473241  0.93193256  0.12425425    -0.01600
Br1292     Br  0.77338853  0.85971637  0.08187173    -0.01600
C1293       C  0.70306026  0.67163778  0.96106676    -0.02700
C1294       C  0.73463058  0.69102855  0.94564202     0.07000
C1295       C  0.74669655  0.67794684  0.91426620    -0.02800
C1296       C  0.72651818  0.64624249  0.89750316    -0.02800
C1297       C  0.69304488  0.62933328  0.90788017     0.07100
C1298       C  0.68145902  0.64376936  0.93816251    -0.03000
Br1299     Br  0.63549782  0.62765520  0.94656012    -0.01600
Br1300     Br  0.68875884  0.68378960  0.01274130    -0.01600
Br1301     Br  0.74476078  0.62623288  0.86181934    -0.01600
Br1302     Br  0.79121608  0.70332918  0.89606841    -0.01600
C1303       C  0.70014302  0.75838629  0.09113733    -0.02700
C1304       C  0.68766684  0.75321864  0.04779770     0.07000
C1305       C  0.65350950  0.73472270  0.04139413    -0.02800
C1306       C  0.63258726  0.72207210  0.07752096    -0.02800
C1307       C  0.64497969  0.73096560  0.12068572     0.07100
C1308       C  0.67899751  0.74947558  0.12705687    -0.03000
Br1309     Br  0.69730826  0.76449644  0.18454401    -0.01600
Br1310     Br  0.74583627  0.77393674  0.10275544    -0.01600
Br1311     Br  0.58724439  0.69025963  0.06690758    -0.01600
Br1312     Br  0.63439732  0.72651778  0.98351064    -0.01600
C1313       C  0.66455388  0.82173551  0.87955685    -0.02700
C1314       C  0.69089031  0.82175108  0.85786955     0.07000
C1315       C  0.69048140  0.82170792  0.81159210    -0.02800
C1316       C  0.66453666  0.82150767  0.78786616    -0.02800
C1317       C  0.63805721  0.82133169  0.80945915     0.07100
C1318       C  0.63848366  0.82143639  0.85580043    -0.03000
Br1319     Br  0.60457345  0.82320272  0.88787089    -0.01600
Br1320     Br  0.66521560  0.82434806  0.94251725    -0.01600
Br1321     Br  0.66517249  0.82061702  0.72485234    -0.01600
Br1322     Br  0.72468206  0.82067620  0.77934397    -0.01600
C1323       C  0.75538313  0.73562312  0.73354565    -0.02700
C1324       C  0.77576115  0.76020040  0.70445392     0.07000
C1325       C  0.79273910  0.79267326  0.71923872    -0.02800
C1326       C  0.78815596  0.80049610  0.76157594    -0.02800
C1327       C  0.76666591  0.77599285  0.78986788     0.07100
C1328       C  0.74966997  0.74357196  0.77545489    -0.03000
Br1329     Br  0.72004955  0.70941268  0.81355974    -0.01600
Br1330     Br  0.74055247  0.69105678  0.71984736    -0.01600
Br1331     Br  0.81103666  0.84543264  0.77994994    -0.01600
Br1332     Br  0.82448291  0.82727238  0.68380199    -0.01600
C1333       C  0.84220343  0.87689857  0.52700539    -0.02700
C1334       C  0.82094998  0.85346481  0.55675998     0.07000
C1335       C  0.79385684  0.85547658  0.57202485    -0.02800
C1336       C  0.78757317  0.87974745  0.55599303    -0.02800
C1337       C  0.80659693  0.90040615  0.52191734     0.07100
C1338       C  0.83418565  0.89890069  0.50795314    -0.03000
Br1339     Br  0.85904118  0.92410757  0.45879040    -0.01600
Br1340     Br  0.88106643  0.87655824  0.50932028    -0.01600
Br1341     Br  0.75091654  0.88250023  0.57747613    -0.01600
Br1342     Br  0.76278298  0.82246447  0.61010046    -0.01600
C1343       C  0.65375102  0.73489696  0.58604510    -0.02700
C1344       C  0.64246714  0.71210469  0.62031191     0.07000
C1345       C  0.66383553  0.70299780  0.63773646    -0.02800
C1346       C  0.68930019  0.70569395  0.61186745    -0.02800
C1347       C  0.70116316  0.72797395  0.57631350     0.07100
C1348       C  0.68397696  0.74419357  0.56546228    -0.03000
Br1349     Br  0.69809738  0.77429570  0.51767239    -0.01600
Br1350     Br  0.62636158  0.75145304  0.56619769    -0.01600
Br1351     Br  0.70043190  0.67230103  0.62085576    -0.01600
Br1352     Br  0.65446732  0.68167617  0.69352864    -0.01600
C1353       C  0.69907783  0.57776984  0.08600876    -0.02700
C1354       C  0.68128563  0.56448263  0.12431275     0.07000
C1355       C  0.64692871  0.54591819  0.12227890    -0.02800
C1356       C  0.63090416  0.53660168  0.08170199    -0.02800
C1357       C  0.64926052  0.54670138  0.04324809     0.07100
C1358       C  0.68289377  0.56937118  0.04555102    -0.03000
Br1359     Br  0.70664515  0.59073369  0.99407056    -0.01600
Br1360     Br  0.74564883  0.60635443  0.08851832    -0.01600
Br1361     Br  0.58406141  0.50959537  0.07875094    -0.01600
Br1362     Br  0.62175662  0.53517411  0.17489371    -0.01600
C1363       C  0.60024265  0.44814571  0.25172249    -0.02700
C1364       C  0.63091302  0.45877065  0.27156582     0.07000
C1365       C  0.63164458  0.44629867  0.31289406    -0.02800
C1366       C  0.60287255  0.42956991  0.33760280    -0.02800
C1367       C  0.57258539  0.42352848  0.32012651     0.07100
C1368       C  0.57117600  0.43104658  0.27587882    -0.03000
Br1369     Br  0.53012691  0.42079515  0.24912438    -0.01600
Br1370     Br  0.59849168  0.45625858  0.19072619    -0.01600
Br1371     Br  0.60541359  0.41534344  0.39571308    -0.01600
Br1372     Br  0.67210928  0.45217915  0.33577381    -0.01600
C1373       C  0.71967553  0.62854452  0.41585923    -0.02700
C1374       C  0.74304118  0.63067099  0.38562174     0.07000
C1375       C  0.77649813  0.64900907  0.39628116    -0.02800
C1376       C  0.78649841  0.66687808  0.43561686    -0.02800
C1377       C  0.76307588  0.66583098  0.46479394     0.07100
C1378       C  0.72968114  0.64595065  0.45522684    -0.03000
Br1379     Br  0.69736593  0.64399802  0.49506792    -0.01600
Br1380     Br  0.67362333  0.60343459  0.40236548    -0.01600
Br1381     Br  0.83222748  0.69374666  0.44894257    -0.01600
Br1382     Br  0.80843082  0.64885228  0.35772893    -0.01600
C1383       C  0.60777874  0.59006590  0.27491658    -0.02700
C1384       C  0.63466105  0.59710941  0.24808234     0.07000
C1385       C  0.63715634  0.61270548  0.20712966    -0.02800
C1386       C  0.61500308  0.62292235  0.19567260    -0.02800
C1387       C  0.59273845  0.62161931  0.22658142     0.07100
C1388       C  0.58795857  0.60361016  0.26523348    -0.03000
Br1389     Br  0.55569568  0.59946502  0.30677437    -0.01600
Br1390     Br  0.59880687  0.56396974  0.32644683    -0.01600
Br1391     Br  0.61812738  0.64240427  0.13906701    -0.01600
Br1392     Br  0.67169729  0.62328846  0.16566761    -0.01600
C1393       C  0.76174877  0.49248354  0.31830379    -0.02700
C1394       C  0.75535104  0.51547768  0.33811308     0.07000
C1395       C  0.76770218  0.52665092  0.38046270    -0.02800
C1396       C  0.78927424  0.51789397  0.40032664    -0.02800
C1397       C  0.79789331  0.49714712  0.37878430     0.07100
C1398       C  0.78195908  0.48264249  0.33926981    -0.03000
Br1399     Br  0.79053321  0.45147223  0.31171427    -0.01600
Br1400     Br  0.74470814  0.47581661  0.26079276    -0.01600
Br1401     Br  0.80942066  0.53630503  0.45565721    -0.01600
Br1402     Br  0.75820828  0.55683487  0.40905677    -0.01600
C1403       C  0.23607077  0.76042746  0.10906589    -0.02700
C1404       C  0.24908231  0.76356767  0.15146628     0.07000
C1405       C  0.24403709  0.73542154  0.17354422    -0.02800
C1406       C  0.22371255  0.70460507  0.15526282    -0.02800
C1407       C  0.20696295  0.70133410  0.11582542     0.07100
C1408       C  0.21495773  0.72935167  0.09145036    -0.03000
Br1409     Br  0.19435506  0.72469903  0.03551207    -0.01600
Br1410     Br  0.24370505  0.79838227  0.07758267    -0.01600
Br1411     Br  0.21547098  0.66640772  0.18683647    -0.01600
Br1412     Br  0.26268747  0.73857782  0.23084610    -0.01600
C1413       C  0.03691085  0.60200368  0.25839696    -0.02700
C1414       C  0.02440712  0.59543639  0.21499778     0.07000
C1415       C  0.99030521  0.58061044  0.20861877    -0.02800
C1416       C  0.96919810  0.57008584  0.24475607    -0.02800
C1417       C  0.98166953  0.57288748  0.28779835     0.07100
C1418       C  0.01575863  0.58979031  0.29435977    -0.03000
Br1419     Br  0.03421313  0.59565076  0.35239717    -0.01600
Br1420     Br  0.08294883  0.63047163  0.26995186    -0.01600
Br1421     Br  0.92313264  0.55375563  0.23442047    -0.01600
Br1422     Br  0.97155499  0.57429176  0.15068337    -0.01600
C1423       C  0.87757313  0.80121554  0.92140773    -0.02700
C1424       C  0.86956145  0.82141969  0.94553276     0.07000
C1425       C  0.88803675  0.83680388  0.98316213    -0.02800
C1426       C  0.91083301  0.82861628  0.99974521    -0.02800
C1427       C  0.91543169  0.80473445  0.97902775     0.07100
C1428       C  0.90014359  0.79254883  0.93826367    -0.03000
Br1429     Br  0.90749615  0.76157223  0.90793039    -0.01600
Br1430     Br  0.85623832  0.78454238  0.86612575    -0.01600
Br1431     Br  0.93396990  0.84856707  0.05312068    -0.01600
Br1432     Br  0.87952840  0.86670558  0.01460984    -0.01600
C1433       C  0.04929981  0.88464260  0.04172003    -0.02700
C1434       C  0.03788344  0.85184575  0.03221490     0.07000
C1435       C  0.05572250  0.84459456  0.00164888    -0.02800
C1436       C  0.08715493  0.86783049  0.98952070    -0.02800
C1437       C  0.09814276  0.90068807  0.99651579     0.07100
C1438       C  0.07802131  0.90904541  0.02108606    -0.03000
Br1439     Br  0.08702340  0.95274575  0.02282145    -0.01600
Br1440     Br  0.02577841  0.89614088  0.08196063    -0.01600
Br1441     Br  0.11565445  0.85352195  0.96602270    -0.01600
Br1442     Br  0.03593755  0.80459956  0.96927503    -0.01600
C1443       C  0.83106237  0.68661800  0.14609578    -0.02700
C1444       C  0.85904983  0.68502735  0.13567888     0.07000
C1445       C  0.86099533  0.65755091  0.14965816    -0.02800
C1446       C  0.83515678  0.63214029  0.17279638    -0.02800
C1447       C  0.80727129  0.63382066  0.18334702     0.07100
C1448       C  0.80568094  0.66162844  0.17048290    -0.03000
Br1449     Br  0.76867259  0.66609634  0.18542812    -0.01600
Br1450     Br  0.82672100  0.72220235  0.12455760    -0.01600
Br1451     Br  0.83873759  0.59575547  0.19286801    -0.01600
Br1452     Br  0.89966124  0.65456504  0.13964442    -0.01600
C1453       C  0.06185228  0.73354647  0.06183748    -0.02700
C1454       C  0.03446036  0.72587501  0.08813398     0.07000
C1455       C  0.03275715  0.71182122  0.13040239    -0.02800
C1456       C  0.05646069  0.70407555  0.14344377    -0.02800
C1457       C  0.07885473  0.70533946  0.11300182     0.07100
C1458       C  0.08362120  0.72286901  0.07413309    -0.03000
Br1459     Br  0.11993036  0.73129720  0.03739926    -0.01600
Br1460     Br  0.06989758  0.75743167  0.00838721    -0.01600
Br1461     Br  0.05646162  0.68899564  0.20220542    -0.01600
Br1462     Br  0.99692399  0.69845228  0.17121733    -0.01600
C1463       C  0.86565462  0.51932173  0.56333022    -0.02700
C1464       C  0.89417527  0.54167413  0.54126520     0.07000
C1465       C  0.91493038  0.57229271  0.56040745    -0.02800
C1466       C  0.90695201  0.58030934  0.60098848    -0.02800
C1467       C  0.87752855  0.55819058  0.62191296     0.07100
C1468       C  0.85607978  0.52852277  0.60114114    -0.03000
Br1469     Br  0.81186206  0.50082419  0.62130183    -0.01600
Br1470     Br  0.84087595  0.47445618  0.54541714    -0.01600
Br1471     Br  0.93712831  0.62164821  0.62709494    -0.01600
Br1472     Br  0.95459994  0.60378106  0.53204971    -0.01600
C1473       C  0.73814040  0.49261096  0.83169715    -0.02700
C1474       C  0.76781896  0.51811893  0.84822984     0.07000
C1475       C  0.76760545  0.53261394  0.88811359    -0.02800
C1476       C  0.73773049  0.52399074  0.90865039    -0.02800
C1477       C  0.70771306  0.50137194  0.88933723     0.07100
C1478       C  0.70834164  0.48402315  0.85248773    -0.03000
Br1479     Br  0.66827889  0.44976123  0.82862490    -0.01600
Br1480     Br  0.73803719  0.47030826  0.77917930    -0.01600
Br1481     Br  0.73773795  0.54353316  0.96319557    -0.01600
Br1482     Br  0.80777776  0.56678452  0.91226630    -0.01600
C1483       C  0.83346711  0.63654461  0.64922523    -0.02700
C1484       C  0.83490190  0.63661351  0.69554905     0.07000
C1485       C  0.83718063  0.66370064  0.71786125    -0.02800
C1486       C  0.83825842  0.68988290  0.69458490    -0.02800
C1487       C  0.83722446  0.68988649  0.64850649     0.07100
C1488       C  0.83458797  0.66285527  0.62620359    -0.03000
Br1489     Br  0.83120012  0.66145767  0.56344048    -0.01600
Br1490     Br  0.83027953  0.60080841  0.61608435    -0.01600
Br1491     Br  0.83964615  0.72551139  0.72601459    -0.01600
Br1492     Br  0.83643199  0.66419642  0.78087399    -0.01600
C1493       C  0.93123477  0.67276383  0.87555941    -0.02700
C1494       C  0.91181751  0.63904876  0.88004098     0.07000
C1495       C  0.90634720  0.62538928  0.92243821    -0.02800
C1496       C  0.91400136  0.64519475  0.95950936    -0.02800
C1497       C  0.93270258  0.67899306  0.95496948     0.07100
C1498       C  0.94407255  0.69211740  0.91288548    -0.03000
Br1499     Br  0.97981723  0.73568858  0.90517588    -0.01600
Br1500     Br  0.93979943  0.69356479  0.81918036    -0.01600
Br1501     Br  0.89726026  0.62514672  0.01535834    -0.01600
Br1502     Br  0.89194253  0.58010230  0.93103909    -0.01600
C1503       C  0.01471491  0.77677035  0.20906542    -0.02700
C1504       C  0.98080134  0.76466659  0.20698711     0.07000
C1505       C  0.96284469  0.75874293  0.24548510    -0.02800
C1506       C  0.97900688  0.76614518  0.28605931    -0.02800
C1507       C  0.01305357  0.77798652  0.28823730     0.07100
C1508       C  0.03032679  0.78126296  0.24961762    -0.03000
Br1509     Br  0.07510296  0.79154964  0.25143503    -0.01600
Br1510     Br  0.04051170  0.78923559  0.15668734    -0.01600
Br1511     Br  0.95384519  0.75818288  0.33864448    -0.01600
Br1512     Br  0.91653759  0.74288503  0.24223679    -0.01600
C1513       C  0.13217516  0.90501064  0.49625059    -0.02700
C1514       C  0.09973018  0.88823365  0.51131573     0.07000
C1515       C  0.09174159  0.90233498  0.54643814    -0.02800
C1516       C  0.11560131  0.93312562  0.56373612    -0.02800
C1517       C  0.14586653  0.95179338  0.54233267     0.07100
C1518       C  0.15216660  0.93770204  0.50557079    -0.03000
Br1519     Br  0.18315125  0.96225144  0.46019508    -0.01600
Br1520     Br  0.15071401  0.88397838  0.46241806    -0.01600
Br1521     Br  0.10498493  0.95156137  0.61227933    -0.01600
Br1522     Br  0.04843246  0.88073808  0.56982131    -0.01600
C1523       C  0.93831759  0.82129610  0.42952701    -0.02700
C1524       C  0.96131403  0.81769673  0.45499017     0.07000
C1525       C  0.95135896  0.80249703  0.49600497    -0.02800
C1526       C  0.91869174  0.78731811  0.50835649    -0.02800
C1527       C  0.89578875  0.79192683  0.48463578     0.07100
C1528       C  0.90597079  0.80961626  0.44515028    -0.03000
Br1529     Br  0.87579123  0.81731696  0.41233674    -0.01600
Br1530     Br  0.95103577  0.84140064  0.37326714    -0.01600
Br1531     Br  0.90504208  0.75628747  0.55496141    -0.01600
Br1532     Br  0.98193640  0.79973332  0.53527520    -0.01600
C1533       C  0.14866901  0.84293224  0.31153064    -0.02700
C1534       C  0.14309873  0.83267488  0.35540687     0.07000
C1535       C  0.16307050  0.82100040  0.37388242    -0.02800
C1536       C  0.18626676  0.81803960  0.34830588    -0.02800
C1537       C  0.18965990  0.82578990  0.30337044     0.07100
C1538       C  0.16924632  0.83669183  0.28505767    -0.03000
Br1539     Br  0.16678603  0.84042996  0.22255978    -0.01600
Br1540     Br  0.13149819  0.86893370  0.28793480    -0.01600
Br1541     Br  0.21361649  0.80380216  0.37643260    -0.01600
Br1542     Br  0.16152253  0.81111798  0.43558996    -0.01600
C1543       C  0.96339844  0.68099351  0.36882819    -0.02700
C1544       C  0.96462927  0.69309996  0.41215529     0.07000
C1545       C  0.94010350  0.67267426  0.44169482    -0.02800
C1546       C  0.92016027  0.63957255  0.43150878    -0.02800
C1547       C  0.92376556  0.62699886  0.39145936     0.07100
C1548       C  0.94167842  0.64854745  0.35829318    -0.03000
Br1549     Br  0.93834345  0.63335455  0.29876232    -0.01600
Br1550     Br  0.99251081  0.70611763  0.32241737    -0.01600
Br1551     Br  0.88785707  0.61108582  0.47249152    -0.01600
Br1552     Br  0.93420462  0.68860231  0.49678155    -0.01600
C1553       C  0.10039125  0.68470869  0.90541216    -0.02700
C1554       C  0.12715603  0.68805774  0.88064881     0.07000
C1555       C  0.14660529  0.67573104  0.89814850    -0.02800
C1556       C  0.13715550  0.65710257  0.93625106    -0.02800
C1557       C  0.11002923  0.65302796  0.96031726     0.07100
C1558       C  0.09153637  0.66676179  0.94451969    -0.03000
Br1559     Br  0.05347139  0.66089193  0.97549857    -0.01600
Br1560     Br  0.07494329  0.70412857  0.88697543    -0.01600
Br1561     Br  0.16049843  0.63492369  0.95277794    -0.01600
Br1562     Br  0.18817288  0.68587250  0.87295108    -0.01600
C1563       C  0.28945294  0.77864515  0.64963520    -0.02700
C1564       C  0.29145118  0.79914223  0.61528578     0.07000
C1565       C  0.26226927  0.79400397  0.59508288    -0.02800
C1566       C  0.23157208  0.77111494  0.61203572    -0.02800
C1567       C  0.22986669  0.75369035  0.64990103     0.07100
C1568       C  0.25883793  0.75627126  0.66713166    -0.03000
Br1569     Br  0.25675848  0.73060681  0.71691543    -0.01600
Br1570     Br  0.32871356  0.78398712  0.67662147    -0.01600
Br1571     Br  0.19206211  0.76600522  0.58617318    -0.01600
Br1572     Br  0.26466079  0.82080967  0.54659395    -0.01600
C1573       C  0.02481373  0.61612772  0.78981735    -0.02700
C1574       C  0.03483751  0.62223846  0.74580064     0.07000
C1575       C  0.01221234  0.60281793  0.71368137    -0.02800
C1576       C  0.97887771  0.58502295  0.72444022    -0.02800
C1577       C  0.96829544  0.58823766  0.76647829     0.07100
C1578       C  0.99167256  0.60194347  0.80020458    -0.03000
Br1579     Br  0.98001731  0.60587905  0.85920815    -0.01600
Br1580     Br  0.05617313  0.62451182  0.83537822    -0.01600
Br1581     Br  0.94788464  0.55689747  0.68131368    -0.01600
Br1582     Br  0.02658684  0.59874422  0.65665081    -0.01600
C1583       C  0.05688218  0.72543070  0.55792854    -0.02700
C1584       C  0.07586566  0.75756494  0.54372797     0.07000
C1585       C  0.10039393  0.78060002  0.57148651    -0.02800
C1586       C  0.10729829  0.77104324  0.61179911    -0.02800
C1587       C  0.08888102  0.73869120  0.62531501     0.07100
C1588       C  0.06304240  0.71621509  0.59889233    -0.03000
Br1589     Br  0.03559242  0.67291143  0.61940017    -0.01600
Br1590     Br  0.02133915  0.69433539  0.52211553    -0.01600
Br1591     Br  0.14146427  0.80226899  0.64918173    -0.01600
Br1592     Br  0.12438066  0.82530208  0.55440870    -0.01600
C1593       C  0.19733011  0.83393504  0.81228782    -0.02700
C1594       C  0.16599311  0.80758164  0.80345612     0.07000
C1595       C  0.13850271  0.81018263  0.81639199    -0.02800
C1596       C  0.14240841  0.83836774  0.83733008    -0.02800
C1597       C  0.17366702  0.86369295  0.84885712     0.07100
C1598       C  0.20116847  0.86159290  0.83486800    -0.03000
Br1599     Br  0.24460873  0.89796676  0.84276263    -0.01600
Br1600     Br  0.23512450  0.83305246  0.79104318    -0.01600
Br1601     Br  0.10460548  0.84220856  0.84974134    -0.01600
Br1602     Br  0.09468438  0.77432354  0.80868834    -0.01600
C1603       C  0.23614810  0.45840283  0.11430676    -0.02700
C1604       C  0.23635424  0.47288309  0.15458186     0.07000
C1605       C  0.26637039  0.49829345  0.17060327    -0.02800
C1606       C  0.29566937  0.50777814  0.14786116    -0.02800
C1607       C  0.29592529  0.49016044  0.11117172     0.07100
C1608       C  0.26577554  0.46705562  0.09286127    -0.03000
Br1609     Br  0.26570151  0.44656092  0.03880653    -0.01600
Br1610     Br  0.19604903  0.42374456  0.09111417    -0.01600
Br1611     Br  0.33578080  0.54427703  0.16787122    -0.01600
Br1612     Br  0.26801550  0.51871142  0.22557489    -0.01600
C1613       C  0.17935373  0.54603879  0.18434221    -0.02700
C1614       C  0.16150342  0.52746961  0.22043489     0.07000
C1615       C  0.13821582  0.53373874  0.23950530    -0.02800
C1616       C  0.12960169  0.55495549  0.21924086    -0.02800
C1617       C  0.14511217  0.57094182  0.18043684     0.07100
C1618       C  0.17135170  0.56786163  0.16461342    -0.03000
Br1619     Br  0.19583431  0.59292396  0.11504095    -0.01600
Br1620     Br  0.21276360  0.53947284  0.15928683    -0.01600
Br1621     Br  0.09431070  0.55941238  0.24220763    -0.01600
Br1622     Br  0.11725059  0.51184334  0.29260718    -0.01600
C1623       C  0.20682833  0.33537530  0.33058556    -0.02700
C1624       C  0.17995635  0.30883696  0.35127901     0.07000
C1625       C  0.14956498  0.30722609  0.35107016    -0.02800
C1626       C  0.14574149  0.33137010  0.32999496    -0.02800
C1627       C  0.17259123  0.35802380  0.30955689     0.07100
C1628       C  0.20303484  0.35967459  0.30970378    -0.03000
Br1629     Br  0.23893644  0.39425902  0.27888397    -0.01600
Br1630     Br  0.24912308  0.33856104  0.32962343    -0.01600
Br1631     Br  0.10324884  0.32758629  0.33034564    -0.01600
Br1632     Br  0.11374512  0.27310755  0.38261597    -0.01600
C1633       C  0.10781204  0.20057868  0.05250704    -0.02700
C1634       C  0.09487453  0.18869737  0.01061302     0.07000
C1635       C  0.10097574  0.16554641  0.99112392    -0.02800
C1636       C  0.12197576  0.15652852  0.01164451    -0.02800
C1637       C  0.13801230  0.17136394  0.05114890     0.07100
C1638       C  0.12916571  0.19185322  0.07259979    -0.03000
Br1639     Br  0.14821517  0.20955175  0.12864429    -0.01600
Br1640     Br  0.09977677  0.23181826  0.08043034    -0.01600
Br1641     Br  0.13021095  0.12537882  0.98369797    -0.01600
Br1642     Br  0.08169859  0.14720422  0.93507317    -0.01600
C1643       C  0.93367693  0.09101832  0.00122991    -0.02700
C1644       C  0.90391889  0.08650327  0.98399955     0.07000
C1645       C  0.90442922  0.10118460  0.94377182    -0.02800
C1646       C  0.93458914  0.12376420  0.92486403    -0.02800
C1647       C  0.96433133  0.13175557  0.94580322     0.07100
C1648       C  0.96365293  0.11329996  0.98201314    -0.03000
Br1649     Br  0.00400984  0.12027710  0.00722743    -0.01600
Br1650     Br  0.93344885  0.06718419  0.05211264    -0.01600
Br1651     Br  0.93572149  0.14471140  0.87070684    -0.01600
Br1652     Br  0.86420088  0.09246967  0.91621925    -0.01600
C1653       C  0.10261723  0.36293861  0.08204682    -0.02700
C1654       C  0.10002465  0.35000878  0.12447263     0.07000
C1655       C  0.08566872  0.31640236  0.12943276    -0.02800
C1656       C  0.07202310  0.29617875  0.09298000    -0.02800
C1657       C  0.07923709  0.30928203  0.05021700     0.07100
C1658       C  0.09554677  0.34310024  0.04518367    -0.03000
Br1659     Br  0.10900901  0.36316102  0.98854855    -0.01600
Br1660     Br  0.11189151  0.40682625  0.07322404    -0.01600
Br1661     Br  0.03940914  0.25165785  0.10352422    -0.01600
Br1662     Br  0.08580965  0.29752185  0.18513652    -0.01600
C1663       C  0.16983105  0.30402158  0.85198146    -0.02700
C1664       C  0.14298052  0.30828738  0.86006928     0.07000
C1665       C  0.14429389  0.33699890  0.84452404    -0.02800
C1666       C  0.17195448  0.36086644  0.82185437    -0.02800
C1667       C  0.19880062  0.35658890  0.81381392     0.07100
C1668       C  0.19719676  0.32757795  0.82856357    -0.03000
Br1669     Br  0.23289653  0.31983483  0.81798228    -0.01600
Br1670     Br  0.17009827  0.26679165  0.87570109    -0.01600
Br1671     Br  0.17206793  0.39844816  0.79874625    -0.01600
Br1672     Br  0.10747217  0.34346697  0.85197311    -0.01600
C1673       C  0.08685775  0.42036498  0.44137729    -0.02700
C1674       C  0.10933302  0.44930087  0.46331188     0.07000
C1675       C  0.14062878  0.46903539  0.44470084    -0.02800
C1676       C  0.14917751  0.45973486  0.40583335    -0.02800
C1677       C  0.12576551  0.43277663  0.38194902     0.07100
C1678       C  0.09472605  0.41264724  0.40039813    -0.03000
Br1679     Br  0.06219335  0.37461276  0.36980581    -0.01600
Br1680     Br  0.04545051  0.39000451  0.46714755    -0.01600
Br1681     Br  0.19427862  0.48307725  0.38726601    -0.01600
Br1682     Br  0.17247126  0.51042885  0.46944112    -0.01600
C1683       C  0.17237160  0.62482308  0.67365190    -0.02700
C1684       C  0.16244833  0.62799152  0.71575515     0.07000
C1685       C  0.14768380  0.60026714  0.74249409    -0.02800
C1686       C  0.14070935  0.56961298  0.72606060    -0.02800
C1687       C  0.14490981  0.56569395  0.68117700     0.07100
C1688       C  0.16313689  0.59405451  0.65614338    -0.03000
Br1689     Br  0.17642666  0.59122935  0.59756125    -0.01600
Br1690     Br  0.19692001  0.66266990  0.63843368    -0.01600
Br1691     Br  0.12644485  0.53382041  0.76543475    -0.01600
Br1692     Br  0.13520599  0.60418368  0.80085473    -0.01600
C1693       C  0.23847837  0.49763540  0.68585509    -0.02700
C1694       C  0.24457892  0.47470301  0.66549070     0.07000
C1695       C  0.23037025  0.46242430  0.62414868    -0.02800
C1696       C  0.20833013  0.47094071  0.60545765    -0.02800
C1697       C  0.19910493  0.49057322  0.62846646     0.07100
C1698       C  0.21539763  0.50500700  0.66794994    -0.03000
Br1699     Br  0.20401561  0.53264797  0.69973111    -0.01600
Br1700     Br  0.26148767  0.51865062  0.73891447    -0.01600
Br1701     Br  0.18910508  0.45448489  0.54900471    -0.01600
Br1702     Br  0.23789105  0.43114013  0.59504534    -0.01600
C1703       C  0.00349936  0.50136325  0.54479194    -0.02700
C1704       C  0.02884747  0.49946563  0.52323691     0.07000
C1705       C  0.02801962  0.49831652  0.47699182    -0.02800
C1706       C  0.00211749  0.49830115  0.45317766    -0.02800
C1707       C  0.97611824  0.49900109  0.47486533     0.07100
C1708       C  0.97715619  0.50042370  0.52112569    -0.03000
Br1709     Br  0.94312409  0.50208943  0.55316167    -0.01600
Br1710     Br  0.00601404  0.50749136  0.60732800    -0.01600
Br1711     Br  0.00136880  0.49543928  0.39026502    -0.01600
Br1712     Br  0.06162225  0.49546823  0.44554629    -0.01600
C1713       C  0.83041822  0.42136107  0.83638116    -0.02700
C1714       C  0.85625746  0.41792718  0.81982014     0.07000
C1715       C  0.87051005  0.43282945  0.77991980    -0.02800
C1716       C  0.86171693  0.45410062  0.75993155    -0.02800
C1717       C  0.83902279  0.46099227  0.77983669     0.07100
C1718       C  0.82196304  0.44285000  0.81663636    -0.03000
Br1719     Br  0.78974296  0.45028873  0.84352444    -0.01600
Br1720     Br  0.80750221  0.39762465  0.88764708    -0.01600
Br1721     Br  0.88242423  0.47585558  0.70673260    -0.01600
Br1722     Br  0.90440116  0.42683539  0.75502674    -0.01600
C1723       C  0.80289689  0.26130235  0.90549894    -0.02700
C1724       C  0.80704198  0.28996704  0.88624275     0.07000
C1725       C  0.78702314  0.28742694  0.85035697    -0.02800
C1726       C  0.76444186  0.25686838  0.83282550    -0.02800
C1727       C  0.76251186  0.22848221  0.84957791     0.07100
C1728       C  0.78120059  0.23079667  0.88688849    -0.03000
Br1729     Br  0.77991154  0.19273845  0.90980749    -0.01600
Br1730     Br  0.82928088  0.26433023  0.95557125    -0.01600
Br1731     Br  0.73712739  0.25394924  0.78405548    -0.01600
Br1732     Br  0.79354148  0.32574403  0.82093267    -0.01600
C1733       C  0.97628403  0.32240529  0.93997095    -0.02700
C1734       C  0.94970245  0.31020298  0.91025200     0.07000
C1735       C  0.93368701  0.27729597  0.89888000    -0.02800
C1736       C  0.94498425  0.25725057  0.91630649    -0.02800
C1737       C  0.97089165  0.26953157  0.94700004     0.07100
C1738       C  0.98427394  0.30150415  0.96139518    -0.03000
Br1739     Br  0.01391299  0.31715321  0.01031975    -0.01600
Br1740     Br  0.00390826  0.36847179  0.94919641    -0.01600
Br1741     Br  0.92490578  0.21273342  0.89905786    -0.01600
Br1742     Br  0.89715236  0.26006455  0.85914696    -0.01600
C1743       C  0.97044345  0.38905389  0.75559781    -0.02700
C1744       C  0.98267465  0.40965424  0.79270386     0.07000
C1745       C  0.00897340  0.44100710  0.78762286    -0.02800
C1746       C  0.02218602  0.45184079  0.74604693    -0.02800
C1747       C  0.01383066  0.42993043  0.71076519     0.07100
C1748       C  0.98616819  0.39895082  0.71490072    -0.03000
Br1749     Br  0.96734679  0.37118787  0.66466489    -0.01600
Br1750     Br  0.93188753  0.34690138  0.76018611    -0.01600
Br1751     Br  0.04611005  0.49761392  0.73524442    -0.01600
Br1752     Br  0.02663102  0.46943884  0.83714190    -0.01600
C1753       C  0.99625680  0.50328768  0.95915492    -0.02700
C1754       C  0.97156129  0.47631481  0.98150897     0.07000
C1755       C  0.97418419  0.47569161  0.02759614    -0.02800
C1756       C  0.00116094  0.50103257  0.05027095    -0.02800
C1757       C  0.02651700  0.52730872  0.02753038     0.07100
C1758       C  0.02389764  0.52782800  0.98150539    -0.03000
Br1759     Br  0.05788034  0.56222198  0.94809164    -0.01600
Br1760     Br  0.99090568  0.50775986  0.89755908    -0.01600
Br1761     Br  0.00453435  0.49865566  0.11286783    -0.01600
Br1762     Br  0.94158869  0.43980040  0.06041633    -0.01600
C1763       C  0.02579788  0.21201437  0.76185872    -0.02700
C1764       C  0.02037340  0.23175377  0.79061361     0.07000
C1765       C  0.00040648  0.24441232  0.77754419    -0.02800
C1766       C  0.98455337  0.23588252  0.73671288    -0.02800
C1767       C  0.99110499  0.21733536  0.70704914     0.07100
C1768       C  0.01177842  0.20533534  0.72005982    -0.03000
Br1769     Br  0.02070897  0.17864228  0.68205127    -0.01600
Br1770     Br  0.05263935  0.19384346  0.77953278    -0.01600
Br1771     Br  0.94972857  0.24475893  0.72526409    -0.01600
Br1772     Br  0.99271210  0.27163181  0.81625461    -0.01600
C1773       C  0.86468648  0.06152266  0.42959823    -0.02700
C1774       C  0.86251670  0.03346803  0.44836531     0.07000
C1775       C  0.88487948  0.03725160  0.48126011    -0.02800
C1776       C  0.90674381  0.06813536  0.49862272    -0.02800
C1777       C  0.90774940  0.09664468  0.48189194     0.07100
C1778       C  0.88763062  0.09284288  0.44524195    -0.03000
Br1779     Br  0.88877332  0.12973383  0.41806675    -0.01600
Br1780     Br  0.83362424  0.05650850  0.38469930    -0.01600
Br1781     Br  0.93314699  0.06917178  0.54786084    -0.01600
Br1782     Br  0.88245639  0.99925735  0.50685038    -0.01600
C1783       C  0.07159361  0.20864319  0.56073644    -0.02700
C1784       C  0.04408937  0.17811703  0.55138085     0.07000
C1785       C  0.04853349  0.15704939  0.52346450    -0.02800
C1786       C  0.07903985  0.16679762  0.50374198    -0.02800
C1787       C  0.10551162  0.19825892  0.51015830     0.07100
C1788       C  0.10196795  0.21869130  0.54015836    -0.03000
Br1789     Br  0.13823819  0.26129094  0.55111526    -0.01600
Br1790     Br  0.06678708  0.23811115  0.59859300    -0.01600
Br1791     Br  0.08447976  0.13729170  0.46659236    -0.01600
Br1792     Br  0.01207504  0.11546534  0.50918531    -0.01600
C1793       C  0.85778546  0.14919836  0.69938685    -0.02700
C1794       C  0.85705407  0.14616548  0.65351374     0.07000
C1795       C  0.82984217  0.14358916  0.63105411    -0.02800
C1796       C  0.80569290  0.14758997  0.65282240    -0.02800
C1797       C  0.80671374  0.15157274  0.69881255     0.07100
C1798       C  0.83245347  0.15075507  0.72194147    -0.03000
Br1799     Br  0.83390827  0.15258802  0.78488994    -0.01600
Br1800     Br  0.89408854  0.15135300  0.73121844    -0.01600
Br1801     Br  0.77104698  0.14679649  0.61864636    -0.01600
Br1802     Br  0.82528173  0.13290951  0.57022681    -0.01600
C1803       C  0.01663511  0.30739271  0.61315540    -0.02700
C1804       C  0.02697213  0.29519065  0.57760726     0.07000
C1805       C  0.05805704  0.31611255  0.55990592    -0.02800
C1806       C  0.07568473  0.34902615  0.57352739    -0.02800
C1807       C  0.06510915  0.36017391  0.60941414     0.07100
C1808       C  0.03787346  0.33750815  0.63236913    -0.03000
Br1809     Br  0.02750270  0.34904428  0.68792516    -0.01600
Br1810     Br  0.97168017  0.28881666  0.63075842    -0.01600
Br1811     Br  0.11337522  0.37940562  0.54141617    -0.01600
Br1812     Br  0.07441736  0.30156741  0.51291800    -0.01600
C1813       C  0.85533872  0.31077087  0.09992670    -0.02700
C1814       C  0.87991238  0.31077354  0.12606154     0.07000
C1815       C  0.91270362  0.32900177  0.11274223    -0.02800
C1816       C  0.92076733  0.34668130  0.07329861    -0.02800
C1817       C  0.89616795  0.34794206  0.04790937     0.07100
C1818       C  0.86340397  0.33070819  0.06312176    -0.03000
Br1819     Br  0.82851327  0.33560289  0.03749135    -0.01600
Br1820     Br  0.80970156  0.28227674  0.11352933    -0.01600
Br1821     Br  0.96593215  0.36907421  0.05581270    -0.01600
Br1822     Br  0.94708359  0.33139230  0.14946402    -0.01600
C1823       C  0.73353919  0.22894641  0.32205419    -0.02700
C1824       C  0.76295058  0.23866852  0.34510898     0.07000
C1825       C  0.76124671  0.22924791  0.38919350    -0.02800
C1826       C  0.73093798  0.20601105  0.40714623    -0.02800
C1827       C  0.70206603  0.19323467  0.38194832     0.07100
C1828       C  0.70333489  0.20673380  0.34058323    -0.03000
Br1829     Br  0.66384171  0.19297267  0.30748882    -0.01600
Br1830     Br  0.73456763  0.24559197  0.26426960    -0.01600
Br1831     Br  0.72880197  0.18988392  0.46533307    -0.01600
Br1832     Br  0.80030521  0.24649761  0.42422802    -0.01600
C1833       C  0.86429846  0.39553454  0.26056516    -0.02700
C1834       C  0.83998332  0.36644964  0.27930341     0.07000
C1835       C  0.82254619  0.36823860  0.31532124    -0.02800
C1836       C  0.83215738  0.39826737  0.33567400    -0.02800
C1837       C  0.85860482  0.42706868  0.31928232     0.07100
C1838       C  0.87363402  0.42566414  0.28040889    -0.03000
Br1839     Br  0.90968024  0.46449028  0.25723337    -0.01600
Br1840     Br  0.88657451  0.39344684  0.20928399    -0.01600
Br1841     Br  0.81009176  0.39963456  0.38766197    -0.01600
Br1842     Br  0.78726223  0.32919539  0.33925158    -0.01600
C1843       C  0.87211332  0.21971395  0.40615626    -0.02700
C1844       C  0.89551034  0.24874930  0.38636671     0.07000
C1845       C  0.92380521  0.27015573  0.40982339    -0.02800
C1846       C  0.92942388  0.26177416  0.45150363    -0.02800
C1847       C  0.90802015  0.23099679  0.46910681     0.07100
C1848       C  0.87882323  0.21039041  0.44675894    -0.03000
Br1849     Br  0.84830409  0.16931422  0.47084155    -0.01600
Br1850     Br  0.83058056  0.19291555  0.37796057    -0.01600
Br1851     Br  0.96632668  0.29330794  0.48497182    -0.01600
Br1852     Br  0.95436126  0.31189756  0.38624506    -0.01600
C1853       C  0.98427930  0.33592220  0.25693713    -0.02700
C1854       C  0.96944433  0.35273644  0.27437647     0.07000
C1855       C  0.98607902  0.38670548  0.27108997    -0.02800
C1856       C  0.01756491  0.40334074  0.25204601    -0.02800
C1857       C  0.03142980  0.38606661  0.23310802     0.07100
C1858       C  0.01332960  0.35218328  0.23353982    -0.03000
Br1859     Br  0.02695610  0.32723951  0.19976934    -0.01600
Br1860     Br  0.96424135  0.28967745  0.26323231    -0.01600
Br1861     Br  0.04105545  0.44960206  0.24922267    -0.01600
Br1862     Br  0.96550265  0.41006133  0.29183045    -0.01600
C1863       C  0.83842120  0.16202570  0.12342465    -0.02700
C1864       C  0.84029112  0.13683535  0.14533574     0.07000
C1865       C  0.83921774  0.13661645  0.19148395    -0.02800
C1866       C  0.83548230  0.16029252  0.21479110    -0.02800
C1867       C  0.83406408  0.18582355  0.19302720     0.07100
C1868       C  0.83582551  0.18633493  0.14682266    -0.03000
Br1869     Br  0.83628064  0.22106175  0.11453884    -0.01600
Br1870     Br  0.84033286  0.16388497  0.06042248    -0.01600
Br1871     Br  0.82997141  0.15605964  0.27708382    -0.01600
Br1872     Br  0.84138691  0.10300621  0.22355411    -0.01600
loop_ 
_geom_bond_atom_site_label_1 
_geom_bond_atom_site_label_2 
_geom_bond_distance 
_geom_bond_site_symmetry_2 
_ccdc_geom_bond_type 
O1          Cr19   2.054       .  S
O1            C9   1.279       .  A
O2          Cr19   1.931       .  S
O2            C3   1.247       .  A
C3            O4   1.277       .  A
C3         C1844   1.471       .  S
O4          Cr20   2.059       .  S
O5          Cr20   1.957       .  S
O5            C6   1.255       .  A
C6            O7   1.289       .  A
C6         C1867   1.526       .  S
O7          Cr21   2.102       .  S
O8          Cr21   1.973       .  S
O8            C9   1.266       .  A
C9         C1824   1.498       .  S
O10         Cr19   1.944       .  S
O10          C18   1.250       .  A
O11         Cr19   2.077       .  S
O11          C12   1.274       .  A
C12          O13   1.236       .  A
C12        C1854   1.484       .  S
O13         Cr20   1.932       .  S
O14         Cr20   2.036       .  S
O14          C15   1.272       .  A
C15          O16   1.255       .  A
C15        C1814   1.487       .  S
O16         Cr21   1.956       .  S
O17         Cr21   2.080       .  S
O17          C18   1.281       .  A
C18        C1834   1.490       .  S
Cr19         O22   1.764       .  S
Cr20         O22   1.747       .  S
Cr21         O22   1.748       .  S
O23         Cr41   2.042       .  S
O23          C31   1.281       .  A
O24         Cr41   1.978       .  S
O24          C25   1.261       .  A
C25          O26   1.273       .  A
C25        C1847   1.478       .  S
O26         Cr42   2.015       .  S
O27         Cr42   1.962       .  S
O27          C28   1.249       .  A
C28          O29   1.277       .  A
C28        C1794   1.504       .  S
O29         Cr43   2.056       .  S
O30         Cr43   1.976       .  S
O30          C31   1.262       .  A
C31        C1777   1.524       .  S
O32         Cr41   1.951   1_455  S
O32          C40   1.243       .  A
O33         Cr41   2.080   1_455  S
O33          C34   1.274       .  A
C34          O35   1.238   1_455  A
C34        C1804   1.517       .  S
O35         Cr42   1.953       .  S
O36         Cr42   2.006       .  S
O36          C37   1.267       .  A
C37          O38   1.259       .  A
C37        C1767   1.479       .  S
O38         Cr43   1.976       .  S
O39         Cr43   2.062       .  S
O39          C40   1.273   1_655  A
C40        C1784   1.503       .  S
Cr41         O44   1.789       .  S
Cr42         O44   1.785       .  S
Cr43         O44   1.780       .  S
O45         Cr63   2.047       .  S
O45          C53   1.278       .  A
O46         Cr63   1.928       .  S
O46          C47   1.245       .  A
C47          O48   1.279       .  A
C47        C1744   1.479       .  S
O48         Cr64   2.071       .  S
O49         Cr64   1.954       .  S
O49          C50   1.257       .  A
C50          O51   1.287       .  A
C50        C1754   1.513       .  S
O51         Cr65   2.095       .  S
O52         Cr65   1.971       .  S
O52          C53   1.265       .  A
C53        C1714   1.491       .  S
O54         Cr63   1.946       .  S
O54          C62   1.250       .  A
O55         Cr63   2.070       .  S
O55          C56   1.273       .  A
C56          O57   1.239       .  A
C56        C1734   1.477       .  S
O57         Cr64   1.922       .  S
O58         Cr64   2.040       .  S
O58          C59   1.272   1_556  A
C59          O60   1.252   1_554  A
C59        C1817   1.506       .  S
O60         Cr65   1.954       .  S
O61         Cr65   2.075       .  S
O61          C62   1.280       .  A
C62        C1724   1.491       .  S
Cr63         O66   1.756       .  S
Cr64         O66   1.750       .  S
Cr65         O66   1.747       .  S
O67         Cr85   2.071       .  S
O67          C75   1.281       .  A
O68         Cr85   1.942       .  S
O68          C69   1.253       .  A
C69          O70   1.275       .  A
C69        C1747   1.496       .  S
O70         Cr86   2.045       .  S
O71         Cr86   1.965       .  S
O71          C72   1.257       .  A
C72          O73   1.282       .  A
C72        C1704   1.515       .  S
O73         Cr87   2.082       .  S
O74         Cr87   1.974       .  S
O74          C75   1.264       .  A
C75        C1687   1.515       .  S
O76         Cr85   1.952       .  S
O76          C84   1.250       .  A
O77         Cr85   2.063       .  S
O77          C78   1.279       .  A
C78          O79   1.250       .  A
C78        C1807   1.500       .  S
O79         Cr86   1.960       .  S
O80         Cr86   2.030       .  S
O80          C81   1.269       .  A
C81          O82   1.254       .  A
C81        C1674   1.496       .  S
O82         Cr87   1.958       .  S
O83         Cr87   2.068       .  S
O83          C84   1.276       .  A
C84        C1697   1.489       .  S
Cr85         O88   1.759       .  S
Cr86         O88   1.766       .  S
Cr87         O88   1.756       .  S
O89        Cr107   2.033       .  S
O89          C97   1.273       .  A
O90        Cr107   1.949   1_554  S
O90          C91   1.250       .  A
C91          O92   1.270   1_554  A
C91        C1657   1.484       .  S
O92        Cr108   2.027       .  S
O93        Cr108   1.962       .  S
O93          C94   1.257       .  A
C94          O95   1.284       .  A
C94        C1664   1.512       .  S
O95        Cr109   2.082       .  S
O96        Cr109   1.975       .  S
O96          C97   1.264       .  A
C97        C1634   1.489   1_556  S
O98        Cr107   1.959   1_655  S
O98         C106   1.254       .  A
O99        Cr107   2.051       .  S
O99         C100   1.272   1_455  A
C100        O101   1.247   1_655  A
C100       C1737   1.472       .  S
O101       Cr108   1.946       .  S
O102       Cr108   2.014       .  S
O102        C103   1.265       .  A
C103        O104   1.257       .  A
C103       C1764   1.470       .  S
O104       Cr109   1.962       .  S
O105       Cr109   2.068       .  S
O105        C106   1.279   1_455  A
C106       C1647   1.491       .  S
Cr107       O110   1.760       .  S
Cr108       O110   1.757       .  S
Cr109       O110   1.754       .  S
O111       Cr129   2.049       .  S
O111        C119   1.278       .  A
O112       Cr129   1.940       .  S
O112        C113   1.245       .  A
C113        O114   1.269       .  A
C113       C1654   1.480       .  S
O114       Cr130   2.030       .  S
O115       Cr130   1.945       .  S
O115        C116   1.251       .  A
C116        O117   1.282       .  A
C116       C1627   1.492       .  S
O117       Cr131   2.076       .  S
O118       Cr131   1.979       .  S
O118        C119   1.264       .  A
C119       C1604   1.499       .  S
O120       Cr129   1.949       .  S
O120        C128   1.253       .  A
O121       Cr129   2.077       .  S
O121        C122   1.279       .  A
C122        O123   1.247       .  A
C122       C1857   1.485       .  S
O123       Cr130   1.945       .  S
O124       Cr130   2.025       .  S
O124        C125   1.266       .  A
C125        O126   1.258       .  A
C125       C1677   1.488       .  S
O126       Cr131   1.969       .  S
O127       Cr131   2.061       .  S
O127        C128   1.277       .  A
C128       C1614   1.484       .  S
Cr129       O132   1.753       .  S
Cr130       O132   1.754       .  S
Cr131       O132   1.755       .  S
O133       Cr151   1.962       .  S
O133        C141   1.261       .  A
O134       Cr151   2.092       .  S
O134        C135   1.286       .  A
C135        O136   1.254       .  A
C135       C1594   1.515       .  S
O136       Cr152   1.960       .  S
O137       Cr152   2.036       .  S
O137        C138   1.270       .  A
C138        O139   1.252       .  A
C138       C1587   1.475       .  S
O139       Cr153   1.955       .  S
O140       Cr153   2.048       .  S
O140        C141   1.277       .  A
C141       C1567   1.489       .  S
O142       Cr151   2.081       .  S
O142        C150   1.279       .  A
O143       Cr151   1.955       .  S
O143        C144   1.253       .  A
C144        O145   1.269       .  A
C144       C1554   1.498       .  S
O145       Cr152   2.037       .  S
O146       Cr152   1.942       .  S
O146        C147   1.253       .  A
C147        O148   1.275       .  A
C147       C1574   1.496       .  S
O148       Cr153   2.043       .  S
O149       Cr153   1.954       .  S
O149        C150   1.247       .  A
C150       C1684   1.499       .  S
Cr151       O154   1.759       .  S
Cr152       O154   1.764       .  S
Cr153       O154   1.760       .  S
O155       Cr173   1.924       .  S
O155        C163   1.259       .  A
O156       Cr173   2.079       .  S
O156        C157   1.278       .  A
C157        O158   1.243       .  A
C157       C1534   1.515       .  S
O158       Cr174   1.938       .  S
O159       Cr174   2.032       .  S
O159        C160   1.272       .  A
C160        O161   1.250       .  A
C160       C1584   1.476       .  S
O161       Cr175   1.943       .  S
O162       Cr175   2.098       .  S
O162        C163   1.288       .  A
C163       C1514   1.514       .  S
O164       Cr173   2.091       .  S
O164        C172   1.269   1_455  A
O165       Cr173   1.943       .  S
O165        C166   1.259       .  A
C166        O167   1.282       .  A
C166       C1507   1.478       .  S
O167       Cr174   2.048       .  S
O168       Cr174   1.918       .  S
O168        C169   1.243   1_455  A
C169        O170   1.275       .  A
C169       C1544   1.507       .  S
O170       Cr175   2.049   1_655  S
O171       Cr175   1.941   1_655  S
O171        C172   1.231       .  A
C172       C1524   1.494       .  S
Cr173       O176   1.785       .  S
Cr174       O176   1.750       .  S
Cr175       O176   1.738       .  S
O177       Cr195   1.973       .  S
O177        C185   1.263       .  A
O178       Cr195   2.084       .  S
O178        C179   1.286       .  A
C179        O180   1.259       .  A
C179       C1484   1.516       .  S
O180       Cr196   1.961       .  S
O181       Cr196   2.028       .  S
O181        C182   1.268       .  A
C182        O183   1.249       .  A
C182       C1494   1.482       .  S
O183       Cr197   1.947       .  S
O184       Cr197   2.041       .  S
O184        C185   1.275       .  A
C185       C1474   1.492       .  S
O186       Cr195   2.071       .  S
O186        C194   1.278       .  A
O187       Cr195   1.955       .  S
O187        C188   1.254       .  A
C188        O189   1.264       .  A
C188       C1467   1.483       .  S
O189       Cr196   2.017       .  S
O190       Cr196   1.941       .  S
O190        C191   1.251       .  A
C191        O192   1.274       .  A
C191       C1577   1.485       .  S
O192       Cr197   2.043       .  S
O193       Cr197   1.948       .  S
O193        C194   1.249       .  A
C194       C1717   1.490       .  S
Cr195       O198   1.753       .  S
Cr196       O198   1.765       .  S
Cr197       O198   1.752       .  S
O199       Cr217   1.956       .  S
O199        C207   1.261       .  A
O200       Cr217   2.097       .  S
O200        C201   1.288       .  A
C201        O202   1.249       .  A
C201       C1444   1.502       .  S
O202       Cr218   1.943       .  S
O203       Cr218   2.039       .  S
O203        C204   1.272   1_554  A
C204        O205   1.250       .  A
C204       C1497   1.485       .  S
O205       Cr219   1.937   1_556  S
O206       Cr219   2.089   1_556  S
O206        C207   1.287   1_556  A
C207       C1427   1.499   1_554  S
O208       Cr217   2.107       .  S
O208        C216   1.279   1_655  A
O209       Cr217   1.961       .  S
O209        C210   1.257       .  A
C210        O211   1.272       .  A
C210       C1504   1.467       .  S
O211       Cr218   2.030       .  S
O212       Cr218   1.908       .  S
O212        C213   1.234   1_655  A
C213        O214   1.277       .  A
C213       C1454   1.505       .  S
O214       Cr219   2.076   1_455  S
O215       Cr219   1.939   1_455  S
O215        C216   1.237       .  A
C216       C1434   1.504       .  S
Cr217       O220   1.761       .  S
Cr218       O220   1.735       .  S
Cr219       O220   1.729       .  S
O221       Cr239   1.979       .  S
O221        C229   1.265       .  A
O222       Cr239   2.080       .  S
O222        C223   1.286       .  A
C223        O224   1.261       .  A
C223       C1757   1.512       .  S
O224       Cr240   1.966       .  S
O225       Cr240   2.039       .  S
O225        C226   1.271       .  A
C226        O227   1.254       .  A
C226       C1414   1.498       .  S
O227       Cr241   1.961       .  S
O228       Cr241   2.027       .  S
O228        C229   1.271       .  A
C229       C1617   1.487       .  S
O230       Cr239   2.060       .  S
O230        C238   1.276       .  A
O231       Cr239   1.962       .  S
O231        C232   1.254       .  A
C232        O233   1.264       .  A
C232       C1557   1.487   1_554  S
O233       Cr240   2.018       .  S
O234       Cr240   1.949       .  S
O234        C235   1.250       .  A
C235        O236   1.270       .  A
C235       C1457   1.476       .  S
O236       Cr241   2.027       .  S
O237       Cr241   1.948       .  S
O237        C238   1.250       .  A
C238       C1407   1.484       .  S
Cr239       O242   1.757       .  S
Cr240       O242   1.764       .  S
Cr241       O242   1.758       .  S
O243       Cr261   1.980       .  S
O243        C251   1.264       .  A
O244       Cr261   2.083       .  S
O244        C245   1.287       .  A
C245        O246   1.263       .  A
C245       C1707   1.516       .  S
O246       Cr262   1.968       .  S
O247       Cr262   2.039       .  S
O247        C248   1.271       .  A
C248        O249   1.253       .  A
C248       C1417   1.494       .  S
O249       Cr263   1.960       .  S
O250       Cr263   2.038       .  S
O250        C251   1.274       .  A
C251       C1837   1.496       .  S
O252       Cr261   2.068       .  S
O252        C260   1.277       .  A
O253       Cr261   1.964       .  S
O253        C254   1.255       .  A
C254        O255   1.262       .  A
C254       C1464   1.482       .  S
O255       Cr262   2.009       .  S
O256       Cr262   1.953       .  S
O256        C257   1.251       .  A
C257        O258   1.274       .  A
C257       C1547   1.486       .  S
O258       Cr263   2.034       .  S
O259       Cr263   1.946       .  S
O259        C260   1.249       .  A
C260       C1397   1.489       .  S
Cr261       O264   1.757       .  S
Cr262       O264   1.768       .  S
Cr263       O264   1.756       .  S
O265       Cr283   2.074       .  S
O265        C273   1.292       .  A
O266       Cr283   1.958       .  S
O266        C267   1.255       .  A
C267        O268   1.268       .  A
C267       C1374   1.481       .  S
O268       Cr284   2.011       .  S
O269       Cr284   1.949       .  S
O269        C270   1.241       .  A
C270        O271   1.269       .  A
C270       C1447   1.500       .  S
O271       Cr285   2.070       .  S
O272       Cr285   1.960       .  S
O272        C273   1.271       .  A
C273       C1394   1.497       .  S
O274       Cr283   1.961       .  S
O274        C282   1.239       .  A
O275       Cr283   2.035       .  S
O275        C276   1.271       .  A
C276        O277   1.244       .  A
C276       C1384   1.505       .  S
O277       Cr284   1.927       .  S
O278       Cr284   2.048       .  S
O278        C279   1.282       .  A
C279        O280   1.263       .  A
C279       C1354   1.471       .  S
O280       Cr285   1.951       .  S
O281       Cr285   2.068       .  S
O281        C282   1.264       .  A
C282       C1364   1.492       .  S
Cr283       O286   1.751       .  S
Cr284       O286   1.765       .  S
Cr285       O286   1.787       .  S
O287       Cr305   2.026       .  S
O287        C295   1.275       .  A
O288       Cr305   2.001       .  S
O288        C289   1.267       .  A
C289        O290   1.271       .  A
C289       C1377   1.476       .  S
O290       Cr306   2.003       .  S
O291       Cr306   1.969       .  S
O291        C292   1.251       .  A
C292        O293   1.276       .  A
C292       C1487   1.500       .  S
O293       Cr307   2.046       .  S
O294       Cr307   1.989       .  S
O294        C295   1.266       .  A
C295       C1527   1.501       .  S
O296       Cr305   1.961       .  S
O296        C304   1.250       .  A
O297       Cr305   2.059       .  S
O297        C298   1.265       .  A
C298        O299   1.237       .  A
C298       C1347   1.503       .  S
O299       Cr306   1.961       .  S
O300       Cr306   2.018       .  S
O300        C301   1.269       .  A
C301        O302   1.255       .  A
C301       C1324   1.477       .  S
O302       Cr307   1.968       .  S
O303       Cr307   2.037       .  S
O303        C304   1.267       .  A
C304       C1334   1.495       .  S
Cr305       O308   1.788       .  S
Cr306       O308   1.776       .  S
Cr307       O308   1.769       .  S
O309       Cr327   2.044   1_554  S
O309        C317   1.275   1_554  A
O310       Cr327   1.967   1_554  S
O310        C311   1.255       .  A
C311        O312   1.270   1_554  A
C311       C1304   1.497       .  S
O312       Cr328   2.030       .  S
O313       Cr328   1.969       .  S
O313        C314   1.263       .  A
C314        O315   1.285       .  A
C314       C1314   1.517       .  S
O315       Cr329   2.079       .  S
O316       Cr329   1.980       .  S
O316        C317   1.265       .  A
C317       C1284   1.502   1_556  S
O318       Cr327   1.960       .  S
O318        C326   1.253       .  A
O319       Cr327   2.053       .  S
O319        C320   1.275       .  A
C320        O321   1.248       .  A
C320       C1294   1.477       .  S
O321       Cr328   1.955       .  S
O322       Cr328   1.998       .  S
O322        C323   1.259       .  A
C323        O324   1.256       .  A
C323       C1327   1.470       .  S
O324       Cr329   1.970       .  S
O325       Cr329   2.063       .  S
O325        C326   1.277       .  A
C326       C1424   1.493       .  S
Cr327       O330   1.764       .  S
Cr328       O330   1.764       .  S
Cr329       O330   1.758       .  S
O331       Cr349   2.022       .  S
O331        C339   1.269       .  A
O332       Cr349   1.957       .  S
O332        C333   1.251       .  A
C333        O334   1.271       .  A
C333       C1307   1.493       .  S
O334       Cr350   2.039       .  S
O335       Cr350   1.960       .  S
O335        C336   1.255       .  A
C336        O337   1.283       .  A
C336       C1274   1.505       .  S
O337       Cr351   2.070       .  S
O338       Cr351   1.972       .  S
O338        C339   1.261       .  A
C339       C1264   1.483       .  S
O340       Cr349   1.955       .  S
O340        C348   1.252       .  A
O341       Cr349   2.036       .  S
O341        C342   1.273       .  A
C342        O343   1.248       .  A
C342       C1387   1.481       .  S
O343       Cr350   1.944       .  S
O344       Cr350   2.009       .  S
O344        C345   1.266       .  A
C345        O346   1.261       .  A
C345       C1244   1.486       .  S
O346       Cr351   1.967       .  S
O347       Cr351   2.086       .  S
O347        C348   1.281       .  A
C348       C1254   1.499       .  S
Cr349       O352   1.755       .  S
Cr350       O352   1.762       .  S
Cr351       O352   1.766       .  S
O353       Cr371   2.043       .  S
O353        C361   1.272       .  A
O354       Cr371   1.957       .  S
O354        C355   1.262       .  A
C355        O356   1.266       .  A
C355       C1237   1.496       .  S
O356       Cr372   2.020       .  S
O357       Cr372   1.971       .  S
O357        C358   1.257       .  A
C358        O359   1.283       .  A
C358       C1224   1.513       .  S
O359       Cr373   2.083       .  S
O360       Cr373   1.983       .  S
O360        C361   1.265       .  A
C361       C1204   1.505       .  S
O362       Cr371   1.958       .  S
O362        C370   1.256       .  A
O363       Cr371   2.042       .  S
O363        C364   1.270       .  A
C364        O365   1.248       .  A
C364       C1344   1.482       .  S
O365       Cr372   1.961       .  S
O366       Cr372   1.998       .  S
O366        C367   1.263       .  A
C367        O368   1.256       .  A
C367       C1247   1.466       .  S
O368       Cr373   1.962       .  S
O369       Cr373   2.063       .  S
O369        C370   1.278       .  A
C370       C1214   1.487       .  S
Cr371       O374   1.772       .  S
Cr372       O374   1.762       .  S
Cr373       O374   1.760       .  S
O375       Cr393   2.066       .  S
O375        C383   1.285       .  A
O376       Cr393   1.945       .  S
O376        C377   1.249       .  A
C377        O378   1.267       .  A
C377       C1234   1.470       .  S
O378       Cr394   2.027       .  S
O379       Cr394   1.957       .  S
O379        C380   1.254       .  A
C380        O381   1.284       .  A
C380       C1194   1.512       .  S
O381       Cr395   2.084       .  S
O382       Cr395   1.971       .  S
O382        C383   1.266       .  A
C383       C1187   1.501       .  S
O384       Cr393   1.960       .  S
O384        C392   1.251       .  A
O385       Cr393   2.088       .  S
O385        C386   1.279       .  A
C386        O387   1.239       .  A
C386       C1297   1.496       .  S
O387       Cr394   1.908       .  S
O388       Cr394   2.014       .  S
O388        C389   1.266   1_556  A
C389        O390   1.262   1_554  A
C389       C1357   1.470       .  S
O390       Cr395   1.982       .  S
O391       Cr395   2.070       .  S
O391        C392   1.276       .  A
C392       C1477   1.495       .  S
Cr393       O396   1.761       .  S
Cr394       O396   1.750       .  S
Cr395       O396   1.761       .  S
O397       Cr415   1.977       .  S
O397        C405   1.266       .  A
O398       Cr415   2.103       .  S
O398        C399   1.288       .  A
C399        O400   1.255       .  A
C399       C1227   1.512       .  S
O400       Cr416   1.950       .  S
O401       Cr416   2.051       .  S
O401        C402   1.275       .  A
C402        O403   1.254       .  A
C402       C1164   1.486       .  S
O403       Cr417   1.959       .  S
O404       Cr417   2.039       .  S
O404        C405   1.276       .  A
C405       C1367   1.495       .  S
O406       Cr415   2.074       .  S
O406        C414   1.280       .  A
O407       Cr415   1.965       .  S
O407        C408   1.255       .  A
C408        O409   1.268       .  A
C408       C1144   1.493       .  S
O409       Cr416   2.023       .  S
O410       Cr416   1.924       .  S
O410        C411   1.239       .  A
C411        O412   1.273       .  A
C411       C1174   1.475       .  S
O412       Cr417   2.063       .  S
O413       Cr417   1.964       .  S
O413        C414   1.255       .  A
C414       C1157   1.499       .  S
Cr415       O418   1.756       .  S
Cr416       O418   1.751       .  S
Cr417       O418   1.765       .  S
O419       Cr437   1.970       .  S
O419        C427   1.264       .  A
O420       Cr437   2.077       .  S
O420        C421   1.282       .  A
C421        O422   1.251       .  A
C421       C1197   1.509       .  S
O422       Cr438   1.955       .  S
O423       Cr438   2.039       .  S
O423        C424   1.271       .  A
C424        O425   1.252       .  A
C424       C1167   1.479       .  S
O425       Cr439   1.958       .  S
O426       Cr439   2.055       .  S
O426        C427   1.280       .  A
C427       C1257   1.504       .  S
O428       Cr437   2.074       .  S
O428        C436   1.278       .  A
O429       Cr437   1.973       .  S
O429        C430   1.260       .  A
C430        O431   1.271       .  A
C430       C1124   1.476   1_554  S
O431       Cr438   2.034       .  S
O432       Cr438   1.924       .  S
O432        C433   1.242       .  A
C433        O434   1.274       .  A
C433       C1134   1.474       .  S
O434       Cr439   2.063       .  S
O435       Cr439   1.955       .  S
O435        C436   1.251       .  A
C436       C1607   1.492       .  S
Cr437       O440   1.756       .  S
Cr438       O440   1.748       .  S
Cr439       O440   1.765       .  S
O441       Cr459   2.005       .  S
O441        C449   1.266       .  A
O442       Cr459   2.076       .  S
O442        C443   1.286       .  A
C443        O444   1.253       .  A
C443       C1624   1.491       .  S
O444       Cr460   1.940       .  S
O445       Cr460   2.051       .  S
O445        C446   1.274       .  A
C446        O447   1.243       .  A
C446       C1117   1.482       .  S
O447       Cr461   1.937       .  S
O448       Cr461   2.031       .  S
O448        C449   1.267       .  A
C449       C1787   1.502       .  S
O450       Cr459   2.076       .  S
O450        C458   1.282       .  A
O451       Cr459   1.986       .  S
O451        C452   1.260       .  A
C452        O453   1.267       .  A
C452       C1094   1.484       .  S
O453       Cr460   2.018       .  S
O454       Cr460   1.952       .  S
O454        C455   1.248       .  A
C455        O456   1.273       .  A
C455       C1177   1.474       .  S
O456       Cr461   2.058       .  S
O457       Cr461   1.931       .  S
O457        C458   1.252       .  A
C458       C1104   1.485       .  S
Cr459       O462   1.756       .  S
Cr460       O462   1.757       .  S
Cr461       O462   1.747       .  S
O463       Cr481   1.980       .  S
O463        C471   1.263       .  A
O464       Cr481   2.085       .  S
O464        C465   1.285       .  A
C465        O466   1.256       .  A
C465       C1667   1.511       .  S
O466       Cr482   1.962       .  S
O467       Cr482   2.027       .  S
O467        C468   1.269       .  A
C468        O469   1.244       .  A
C468       C1114   1.479       .  S
O469       Cr483   1.941       .  S
O470       Cr483   2.038       .  S
O470        C471   1.273       .  A
C471       C1694   1.497       .  S
O472       Cr481   2.082       .  S
O472        C480   1.282       .  A
O473       Cr481   1.979       .  S
O473        C474   1.262       .  A
C474        O475   1.266       .  A
C474       C1127   1.479       .  S
O475       Cr482   2.014       .  S
O476       Cr482   1.953       .  S
O476        C477   1.250       .  A
C477        O478   1.277       .  A
C477       C1087   1.485       .  S
O478       Cr483   2.070       .  S
O479       Cr483   1.954       .  S
O479        C480   1.253       .  A
C480       C1207   1.498       .  S
Cr481       O484   1.762       .  S
Cr482       O484   1.759       .  S
Cr483       O484   1.760       .  S
O485       Cr503   1.961       .  S
O485        C493   1.264       .  A
O486       Cr503   2.083       .  S
O486        C487   1.281       .  A
C487        O488   1.247       .  A
C487       C1077   1.509       .  S
O488       Cr504   1.953       .  S
O489       Cr504   2.023       .  S
O489        C490   1.266   1_554  A
C490        O491   1.248       .  A
C490       C1067   1.460       .  S
O491       Cr505   1.943   1_556  S
O492       Cr505   2.052   1_556  S
O492        C493   1.278   1_556  A
C493       C1054   1.495   1_554  S
O494       Cr503   2.070       .  S
O494        C502   1.277       .  A
O495       Cr503   1.976       .  S
O495        C496   1.262       .  A
C496        O497   1.272       .  A
C496       C1097   1.479       .  S
O497       Cr504   2.035       .  S
O498       Cr504   1.920       .  S
O498        C499   1.245       .  A
C499        O500   1.274       .  A
C499       C1137   1.473       .  S
O500       Cr505   2.061       .  S
O501       Cr505   1.948       .  S
O501        C502   1.250       .  A
C502       C1637   1.487       .  S
Cr503       O506   1.756       .  S
Cr504       O506   1.745       .  S
Cr505       O506   1.763       .  S
O507       Cr525   1.966       .  S
O507        C515   1.262       .  A
O508       Cr525   2.103       .  S
O508        C509   1.289       .  A
C509        O510   1.252       .  A
C509       C1044   1.512       .  S
O510       Cr526   1.951       .  S
O511       Cr526   2.041       .  S
O511        C512   1.274       .  A
C512        O513   1.252       .  A
C512       C1064   1.471       .  S
O513       Cr527   1.937       .  S
O514       Cr527   2.066       .  S
O514        C515   1.281       .  A
C515       C1037   1.500       .  S
O516       Cr525   2.079       .  S
O516        C524   1.282       .  A
O517       Cr525   1.954       .  S
O517        C518   1.251       .  A
C518        O519   1.269       .  A
C518       C1147   1.493       .  S
O519       Cr526   2.029       .  S
O520       Cr526   1.936       .  S
O520        C521   1.241       .  A
C521        O522   1.277       .  A
C521       C1084   1.485       .  S
O522       Cr527   2.077       .  S
O523       Cr527   1.945       .  S
O523        C524   1.251       .  A
C524       C1184   1.494       .  S
Cr525       O528   1.748       .  S
Cr526       O528   1.746       .  S
Cr527       O528   1.761       .  S
O529       Cr547   1.978       .  S
O529        C537   1.265       .  A
O530       Cr547   2.075       .  S
O530        C531   1.282       .  A
C531        O532   1.251       .  A
C531       C1024   1.499       .  S
O532       Cr548   1.948       .  S
O533       Cr548   2.030       .  S
O533        C534   1.272       .  A
C534        O535   1.247       .  A
C534       C1007   1.478       .  S
O535       Cr549   1.941       .  S
O536       Cr549   2.040       .  S
O536        C537   1.275       .  A
C537        C997   1.493       .  S
O538       Cr547   2.057       .  S
O538        C546   1.276       .  A
O539       Cr547   1.957       .  S
O539        C540   1.256       .  A
C540        O541   1.267       .  A
C540        C987   1.477   1_554  S
O541       Cr548   2.024       .  S
O542       Cr548   1.944       .  S
O542        C543   1.245       .  A
C543        O544   1.275       .  A
C543       C1014   1.479       .  S
O544       Cr549   2.064       .  S
O545       Cr549   1.948       .  S
O545        C546   1.253       .  A
C546       C1267   1.477       .  S
Cr547       O550   1.755       .  S
Cr548       O550   1.753       .  S
Cr549       O550   1.754       .  S
O551       Cr569   1.974       .  S
O551        C559   1.263       .  A
O552       Cr569   2.080       .  S
O552        C553   1.285       .  A
C553        O554   1.255       .  A
C553        C964   1.510       .  S
O554       Cr570   1.958       .  S
O555       Cr570   2.036       .  S
O555        C556   1.270       .  A
C556        O557   1.247       .  A
C556       C1004   1.485       .  S
O557       Cr571   1.945       .  S
O558       Cr571   2.027       .  S
O558        C559   1.272       .  A
C559        C954   1.485       .  S
O560       Cr569   2.069       .  S
O560        C568   1.279       .  A
O561       Cr569   1.961       .  S
O561        C562   1.256       .  A
C562        O563   1.265       .  A
C562        C944   1.488       .  S
O563       Cr570   2.022       .  S
O564       Cr570   1.952       .  S
O564        C565   1.250       .  A
C565        O566   1.275       .  A
C565        C974   1.472       .  S
O566       Cr571   2.048       .  S
O567       Cr571   1.953       .  S
O567        C568   1.253       .  A
C568       C1827   1.489       .  S
Cr569       O572   1.749       .  S
Cr570       O572   1.757       .  S
Cr571       O572   1.750       .  S
O573       Cr591   1.978       .  S
O573        C581   1.265       .  A
O574       Cr591   2.104       .  S
O574        C575   1.292       .  A
C575        O576   1.255       .  A
C575       C1864   1.517       .  S
O576       Cr592   1.947       .  S
O577       Cr592   2.055       .  S
O577        C578   1.272   1_554  A
C578        O579   1.245       .  A
C578        C937   1.481       .  S
O579       Cr593   1.938   1_556  S
O580       Cr593   2.049   1_556  S
O580        C581   1.277   1_556  A
C581       C1644   1.499   1_554  S
O582       Cr591   2.080       .  S
O582        C590   1.283   1_545  A
O583       Cr591   1.974       .  S
O583        C584   1.256       .  A
C584        O585   1.266       .  A
C584        C927   1.503       .  S
O585       Cr592   2.024       .  S
O586       Cr592   1.935       .  S
O586        C587   1.241   1_545  A
C587        O588   1.279       .  A
C587       C1017   1.485       .  S
O588       Cr593   2.088   1_565  S
O589       Cr593   1.947   1_565  S
O589        C590   1.253       .  A
C590       C1287   1.493       .  S
Cr591       O594   1.747       .  S
Cr592       O594   1.749       .  S
Cr593       O594   1.756       .  S
O595       Cr613   1.980       .  S
O595        C603   1.264       .  A
O596       Cr613   2.102       .  S
O596        C597   1.290       .  A
C597        O598   1.256       .  A
C597       C1797   1.519       .  S
O598       Cr614   1.954       .  S
O599       Cr614   2.043       .  S
O599        C600   1.275       .  A
C600        O601   1.247       .  A
C600        C934   1.488       .  S
O601       Cr615   1.940       .  S
O602       Cr615   2.044       .  S
O602        C603   1.275       .  A
C603       C1727   1.495       .  S
O604       Cr613   2.083       .  S
O604        C612   1.283       .  A
O605       Cr613   1.955       .  S
O605        C606   1.253       .  A
C606        O607   1.266       .  A
C606        C947   1.484       .  S
O607       Cr614   2.021       .  S
O608       Cr614   1.947       .  S
O608        C609   1.244       .  A
C609        O610   1.275       .  A
C609        C914   1.476       .  S
O610       Cr615   2.061       .  S
O611       Cr615   1.948       .  S
O611        C612   1.251       .  A
C612        C904   1.494       .  S
Cr613       O616   1.748       .  S
Cr614       O616   1.754       .  S
Cr615       O616   1.754       .  S
O617       Cr635   1.971       .  S
O617        C625   1.261       .  A
O618       Cr635   2.090       .  S
O618        C619   1.287       .  A
C619        O620   1.254       .  A
C619       C1277   1.508       .  S
O620       Cr636   1.952       .  S
O621       Cr636   2.056       .  S
O621        C622   1.274       .  A
C622        O623   1.251       .  A
C622        C894   1.478       .  S
O623       Cr637   1.948       .  S
O624       Cr637   2.062       .  S
O624        C625   1.281       .  A
C625       C1337   1.500       .  S
O626       Cr635   2.074       .  S
O626        C634   1.282   1_565  A
O627       Cr635   1.964       .  S
O627        C628   1.255       .  A
C628        O629   1.269       .  A
C628        C924   1.495       .  S
O629       Cr636   2.042       .  S
O630       Cr636   1.930       .  S
O630        C631   1.244       .  A
C631        O632   1.275       .  A
C631        C977   1.480   1_565  S
O632       Cr637   2.066       .  S
O633       Cr637   1.941   1_545  S
O633        C634   1.248       .  A
C634       C1774   1.495       .  S
Cr635       O638   1.755       .  S
Cr636       O638   1.747       .  S
Cr637       O638   1.762       .  S
O639       Cr657   1.962       .  S
O639        C647   1.263       .  A
O640       Cr657   2.096       .  S
O640        C641   1.287       .  A
C641        O642   1.257       .  A
C641       C1317   1.518       .  S
O642       Cr658   1.952       .  S
O643       Cr658   2.055       .  S
O643        C644   1.277       .  A
C644        O645   1.252       .  A
C644        C897   1.482       .  S
O645       Cr659   1.945       .  S
O646       Cr659   2.058       .  S
O646        C647   1.280       .  A
C647       C1217   1.494       .  S
O648       Cr657   2.075       .  S
O648        C656   1.280       .  A
O649       Cr657   1.950       .  S
O649        C650   1.251       .  A
C650        O651   1.267       .  A
C650        C984   1.496       .  S
O651       Cr658   2.028       .  S
O652       Cr658   1.925       .  S
O652        C653   1.240       .  A
C653        O654   1.275       .  A
C653        C917   1.484       .  S
O654       Cr659   2.072       .  S
O655       Cr659   1.960       .  S
O655        C656   1.252       .  A
C656        C884   1.498       .  S
Cr657       O660   1.748       .  S
Cr658       O660   1.749       .  S
Cr659       O660   1.763       .  S
O661       Cr679   2.045       .  S
O661        C669   1.271       .  A
O662       Cr679   1.963   1_554  S
O662        C663   1.250       .  A
C663        O664   1.268   1_554  A
C663        C874   1.497       .  S
O664       Cr680   2.029       .  S
O665       Cr680   1.965       .  S
O665        C666   1.263       .  A
C666        O667   1.287       .  A
C666       C1597   1.512       .  S
O667       Cr681   2.082       .  S
O668       Cr681   1.968       .  S
O668        C669   1.263       .  A
C669       C1437   1.499       .  S
O670       Cr679   1.940   1_545  S
O670        C678   1.247       .  A
O671       Cr679   2.054       .  S
O671        C672   1.275   1_565  A
C672        O673   1.248   1_545  A
C672        C864   1.471       .  S
O673       Cr680   1.947       .  S
O674       Cr680   1.990       .  S
O674        C675   1.258       .  A
C675        O676   1.262       .  A
C675        C854   1.464       .  S
O676       Cr681   1.986       .  S
O677       Cr681   2.075       .  S
O677        C678   1.280   1_565  A
C678       C1057   1.490       .  S
Cr679       O682   1.765       .  S
Cr680       O682   1.759       .  S
Cr681       O682   1.762       .  S
O683       Cr701   2.064       .  S
O683        C691   1.281       .  A
O684       Cr701   1.950       .  S
O684        C685   1.251       .  A
C685        O686   1.274       .  A
C685        C877   1.495       .  S
O686       Cr702   2.055       .  S
O687       Cr702   1.943       .  S
O687        C688   1.253       .  A
C688        O689   1.283       .  A
C688       C1537   1.509       .  S
O689       Cr703   2.071       .  S
O690       Cr703   1.958       .  S
O690        C691   1.259       .  A
C691       C1404   1.494       .  S
O692       Cr701   1.961       .  S
O692        C700   1.256       .  A
O693       Cr701   2.090       .  S
O693        C694   1.280       .  A
C694        O695   1.241       .  A
C694        C844   1.490       .  S
O695       Cr702   1.931       .  S
O696       Cr702   2.031       .  S
O696        C697   1.269       .  A
C697        O698   1.255       .  A
C697        C834   1.489       .  S
O698       Cr703   1.958       .  S
O699       Cr703   2.062       .  S
O699        C700   1.277       .  A
C700        C994   1.488       .  S
Cr701       O704   1.753       .  S
Cr702       O704   1.748       .  S
Cr703       O704   1.749       .  S
O705       Cr723   2.079       .  S
O705        C713   1.286       .  A
O706       Cr723   1.945       .  S
O706        C707   1.251       .  A
C707        O708   1.277       .  A
C707        C824   1.483       .  S
O708       Cr724   2.064       .  S
O709       Cr724   1.959       .  S
O709        C710   1.257       .  A
C710        O711   1.286       .  A
C710        C967   1.517       .  S
O711       Cr725   2.085       .  S
O712       Cr725   1.961       .  S
O712        C713   1.262       .  A
C713        C887   1.503       .  S
O714       Cr723   1.949       .  S
O714        C722   1.251       .  A
O715       Cr723   2.104       .  S
O715        C716   1.280       .  A
C716        O717   1.239       .  A
C716        C814   1.501       .  S
O717       Cr724   1.934       .  S
O718       Cr724   2.033       .  S
O718        C719   1.267       .  A
C719        O720   1.254       .  A
C719        C837   1.493       .  S
O720       Cr725   1.959       .  S
O721       Cr725   2.065       .  S
O721        C722   1.278       .  A
C722       C1564   1.488       .  S
Cr723       O726   1.762       .  S
Cr724       O726   1.740       .  S
Cr725       O726   1.749       .  S
O727       Cr745   2.064       .  S
O727        C735   1.283       .  A
O728       Cr745   1.954       .  S
O728        C729   1.253       .  A
C729        O730   1.274       .  A
C729        C827   1.483       .  S
O730       Cr746   2.055       .  S
O731       Cr746   1.950       .  S
O731        C732   1.255       .  A
C732        O733   1.286       .  A
C732       C1027   1.503       .  S
O733       Cr747   2.085       .  S
O734       Cr747   1.968       .  S
O734        C735   1.264       .  A
C735        C907   1.503       .  S
O736       Cr745   1.958       .  S
O736        C744   1.252       .  A
O737       Cr745   2.080       .  S
O737        C738   1.278       .  A
C738        O739   1.239       .  A
C738        C867   1.482       .  S
O739       Cr746   1.927       .  S
O740       Cr746   2.028       .  S
O740        C741   1.265   1_556  A
C741        O742   1.257   1_554  A
C741        C804   1.489       .  S
O742       Cr747   1.967       .  S
O743       Cr747   2.068       .  S
O743        C744   1.278       .  A
C744       C1034   1.491       .  S
Cr745       O748   1.761       .  S
Cr746       O748   1.748       .  S
Cr747       O748   1.753       .  S
O749       Cr767   1.997       .  S
O749        C757   1.272       .  A
O750       Cr767   1.984       .  S
O750        C751   1.261       .  A
C751        O752   1.268       .  A
C751        C797   1.473       .  S
O752       Cr768   2.004       .  S
O753       Cr768   1.956       .  S
O753        C754   1.251       .  A
C754        O755   1.280       .  A
C754       C1047   1.498       .  S
O755       Cr769   2.056       .  S
O756       Cr769   2.017       .  S
O756        C757   1.274       .  A
C757       C1107   1.496       .  S
O758       Cr767   1.964       .  S
O758        C766   1.237   1_545  A
O759       Cr767   2.057   1_565  S
O759        C760   1.268       .  A
C760        O761   1.253   1_565  A
C760        C817   1.492       .  S
O761       Cr768   1.948       .  S
O762       Cr768   1.995       .  S
O762        C763   1.264       .  A
C763        O764   1.260       .  A
C763        C857   1.466   1_545  S
O764       Cr769   1.970       .  S
O765       Cr769   2.069   1_565  S
O765        C766   1.268       .  A
C766       C1517   1.509       .  S
Cr767       O770   1.770       .  S
Cr768       O770   1.774       .  S
Cr769       O770   1.764       .  S
O771       Cr789   2.064       .  S
O771        C779   1.283       .  A
O772       Cr789   1.928       .  S
O772        C773   1.246       .  A
C773        O774   1.276       .  A
C773        C794   1.472       .  S
O774       Cr790   2.047       .  S
O775       Cr790   1.952       .  S
O775        C776   1.250       .  A
C776        O777   1.280       .  A
C776       C1074   1.506       .  S
O777       Cr791   2.077       .  S
O778       Cr791   1.972       .  S
O778        C779   1.265       .  A
C779       C1154   1.503       .  S
O780       Cr789   1.949       .  S
O780        C788   1.251       .  A
O781       Cr789   2.072       .  S
O781        C782   1.277       .  A
C782        O783   1.245       .  A
C782        C847   1.484       .  S
O783       Cr790   1.942       .  S
O784       Cr790   2.048       .  S
O784        C785   1.274       .  A
C785        O786   1.251       .  A
C785        C807   1.490       .  S
O786       Cr791   1.943       .  S
O787       Cr791   2.056       .  S
O787        C788   1.275       .  A
C788        C957   1.478       .  S
Cr789       O792   1.752       .  S
Cr790       O792   1.753       .  S
Cr791       O792   1.753       .  S
C793        C794   1.403       .  A
C793        C798   1.407       .  A
C793       Br800   1.931       .  S
C794        C795   1.417       .  A
C795        C796   1.405       .  A
C795       Br802   1.934       .  S
C796        C797   1.405       .  A
C796       Br801   1.933       .  S
C797        C798   1.415       .  A
C798       Br799   1.921       .  S
C803        C804   1.417       .  A
C803        C808   1.412       .  A
C803       Br810   1.925       .  S
C804        C805   1.411       .  A
C805        C806   1.402       .  A
C805       Br812   1.940       .  S
C806        C807   1.422       .  A
C806       Br811   1.942       .  S
C807        C808   1.414       .  A
C808       Br809   1.936       .  S
C813        C814   1.416       .  A
C813        C818   1.432       .  A
C813       Br820   1.921       .  S
C814        C815   1.415       .  A
C815        C816   1.393       .  A
C815       Br822   1.926       .  S
C816        C817   1.401       .  A
C816       Br821   1.937       .  S
C817        C818   1.417       .  A
C818       Br819   1.916       .  S
C823        C824   1.412       .  A
C823        C828   1.410   1_565  A
C823       Br830   1.930       .  S
C824        C825   1.412       .  A
C825        C826   1.414   1_565  A
C825       Br832   1.929       .  S
C826        C827   1.412       .  A
C826       Br831   1.928       .  S
C827        C828   1.409       .  A
C828       Br829   1.930       .  S
C833        C834   1.415       .  A
C833        C838   1.410       .  A
C833       Br840   1.931       .  S
C834        C835   1.416       .  A
C835        C836   1.404       .  A
C835       Br842   1.939       .  S
C836        C837   1.416       .  A
C836       Br841   1.939       .  S
C837        C838   1.416       .  A
C838       Br839   1.927       .  S
C843        C844   1.420       .  A
C843        C848   1.405   1_565  A
C843       Br850   1.937       .  S
C844        C845   1.407       .  A
C845        C846   1.419   1_565  A
C845       Br852   1.924       .  S
C846        C847   1.415       .  A
C846       Br851   1.917       .  S
C847        C848   1.406       .  A
C848       Br849   1.930       .  S
C853        C854   1.410   1_545  A
C853        C858   1.407       .  A
C853       Br860   1.925       .  S
C854        C855   1.405       .  A
C855        C856   1.399       .  A
C855       Br862   1.932       .  S
C856        C857   1.409       .  A
C856       Br861   1.922       .  S
C857        C858   1.406   1_565  A
C858       Br859   1.929       .  S
C863        C864   1.417       .  A
C863        C868   1.421       .  A
C863       Br870   1.924       .  S
C864        C865   1.395       .  A
C865        C866   1.394       .  A
C865       Br872   1.925   1_546  S
C866        C867   1.415       .  A
C866       Br871   1.928   1_545  S
C867        C868   1.410       .  A
C868       Br869   1.924       .  S
C873        C874   1.426       .  A
C873        C878   1.414       .  A
C873       Br880   1.939       .  S
C874        C875   1.413       .  A
C875        C876   1.406       .  A
C875       Br882   1.937   1_554  S
C876        C877   1.420       .  A
C876       Br881   1.939       .  S
C877        C878   1.412       .  A
C878       Br879   1.933       .  S
C883        C884   1.411       .  A
C883        C888   1.415       .  A
C883       Br890   1.927       .  S
C884        C885   1.417       .  A
C885        C886   1.421       .  A
C885       Br892   1.929       .  S
C886        C887   1.412       .  A
C886       Br891   1.924       .  S
C887        C888   1.417       .  A
C888       Br889   1.932       .  S
C893        C894   1.406       .  A
C893        C898   1.409       .  A
C893       Br900   1.931       .  S
C894        C895   1.413       .  A
C895        C896   1.411       .  A
C895       Br902   1.928       .  S
C896        C897   1.411       .  A
C896       Br901   1.930       .  S
C897        C898   1.414       .  A
C898       Br899   1.928       .  S
C903        C904   1.415       .  A
C903        C908   1.422       .  A
C903       Br910   1.926       .  S
C904        C905   1.410       .  A
C905        C906   1.413       .  A
C905       Br912   1.927       .  S
C906        C907   1.416       .  A
C906       Br911   1.932       .  S
C907        C908   1.413       .  A
C908       Br909   1.926       .  S
C913        C914   1.419       .  A
C913        C918   1.418   1_545  A
C913       Br920   1.924       .  S
C914        C915   1.401       .  A
C915        C916   1.397   1_545  A
C915       Br922   1.925       .  S
C916        C917   1.417       .  A
C916       Br921   1.937       .  S
C917        C918   1.408       .  A
C918       Br919   1.925       .  S
C923        C924   1.412       .  A
C923        C928   1.414   1_565  A
C923       Br930   1.927       .  S
C924        C925   1.413       .  A
C925        C926   1.408       .  A
C925       Br932   1.937       .  S
C926        C927   1.421   1_565  A
C926       Br931   1.938   1_565  S
C927        C928   1.422       .  A
C928       Br929   1.933       .  S
C933        C934   1.410       .  A
C933        C938   1.404       .  A
C933       Br940   1.936       .  S
C934        C935   1.427       .  A
C935        C936   1.407       .  A
C935       Br942   1.939       .  S
C936        C937   1.405       .  A
C936       Br941   1.934   1_556  S
C937        C938   1.420       .  A
C938       Br939   1.939       .  S
C943        C944   1.420       .  A
C943        C948   1.411       .  A
C943       Br950   1.936       .  S
C944        C945   1.417       .  A
C945        C946   1.399       .  A
C945       Br952   1.941       .  S
C946        C947   1.414       .  A
C946       Br951   1.940       .  S
C947        C948   1.415       .  A
C948       Br949   1.934       .  S
C953        C954   1.411       .  A
C953        C958   1.413       .  A
C953       Br960   1.926       .  S
C954        C955   1.413       .  A
C955        C956   1.409       .  A
C955       Br962   1.930       .  S
C956        C957   1.406       .  A
C956       Br961   1.926       .  S
C957        C958   1.410       .  A
C958       Br959   1.928       .  S
C963        C964   1.427   1_565  A
C963        C968   1.420       .  A
C963       Br970   1.935       .  S
C964        C965   1.406       .  A
C965        C966   1.418       .  A
C965       Br972   1.936       .  S
C966        C967   1.431   1_545  A
C966       Br971   1.928       .  S
C967        C968   1.412       .  A
C968       Br969   1.933       .  S
C973        C974   1.419       .  A
C973        C978   1.419       .  A
C973       Br980   1.925       .  S
C974        C975   1.399       .  A
C975        C976   1.391       .  A
C975       Br982   1.925       .  S
C976        C977   1.412       .  A
C976       Br981   1.930   1_545  S
C977        C978   1.408       .  A
C978       Br979   1.923       .  S
C983        C984   1.423       .  A
C983        C988   1.412       .  A
C983       Br990   1.934       .  S
C984        C985   1.425       .  A
C985        C986   1.400       .  A
C985       Br992   1.943       .  S
C986        C987   1.406       .  A
C986       Br991   1.940       .  S
C987        C988   1.410       .  A
C988       Br989   1.933       .  S
C993        C994   1.411       .  A
C993        C998   1.411       .  A
C993      Br1000   1.923       .  S
C994        C995   1.411       .  A
C995        C996   1.415       .  A
C995      Br1002   1.928       .  S
C996        C997   1.412       .  A
C996      Br1001   1.923       .  S
C997        C998   1.412       .  A
C998       Br999   1.931       .  S
C1003      C1004   1.411   1_565  A
C1003      C1008   1.405       .  A
C1003     Br1010   1.933       .  S
C1004      C1005   1.422       .  A
C1005      C1006   1.401       .  A
C1005     Br1012   1.937       .  S
C1006      C1007   1.405   1_545  A
C1006     Br1011   1.933       .  S
C1007      C1008   1.420       .  A
C1008     Br1009   1.938       .  S
C1013      C1014   1.416       .  A
C1013      C1018   1.419       .  A
C1013     Br1020   1.922       .  S
C1014      C1015   1.404       .  A
C1015      C1016   1.400       .  A
C1015     Br1022   1.926       .  S
C1016      C1017   1.417       .  A
C1016     Br1021   1.936   1_565  S
C1017      C1018   1.409       .  A
C1018     Br1019   1.924       .  S
C1023      C1024   1.426       .  A
C1023      C1028   1.417   1_564  A
C1023     Br1030   1.934   1_565  S
C1024      C1025   1.404       .  A
C1025      C1026   1.414   1_554  A
C1025     Br1032   1.933       .  S
C1026      C1027   1.425   1_565  A
C1026     Br1031   1.926       .  S
C1027      C1028   1.406       .  A
C1028     Br1029   1.930       .  S
C1033      C1034   1.409       .  A
C1033      C1038   1.410       .  A
C1033     Br1040   1.926       .  S
C1034      C1035   1.414       .  A
C1035      C1036   1.421       .  A
C1035     Br1042   1.927       .  S
C1036      C1037   1.413       .  A
C1036     Br1041   1.924       .  S
C1037      C1038   1.415       .  A
C1038     Br1039   1.933       .  S
C1043      C1044   1.418       .  A
C1043      C1048   1.422       .  A
C1043     Br1050   1.925       .  S
C1044      C1045   1.418       .  A
C1045      C1046   1.420       .  A
C1045     Br1052   1.926       .  S
C1046      C1047   1.413       .  A
C1046     Br1051   1.930       .  S
C1047      C1048   1.413       .  A
C1048     Br1049   1.929       .  S
C1053      C1054   1.415       .  A
C1053      C1058   1.424       .  A
C1053     Br1060   1.924       .  S
C1054      C1055   1.407   1_556  A
C1055      C1056   1.400   1_554  A
C1055     Br1062   1.939       .  S
C1056      C1057   1.417       .  A
C1056     Br1061   1.928   1_556  S
C1057      C1058   1.414       .  A
C1058     Br1059   1.925       .  S
C1063      C1064   1.414       .  A
C1063      C1068   1.403       .  A
C1063     Br1070   1.929       .  S
C1064      C1065   1.411       .  A
C1065      C1066   1.404       .  A
C1065     Br1072   1.929       .  S
C1066      C1067   1.408       .  A
C1066     Br1071   1.931       .  S
C1067      C1068   1.403       .  A
C1068     Br1069   1.931       .  S
C1073      C1074   1.426       .  A
C1073      C1078   1.418       .  A
C1073     Br1080   1.935       .  S
C1074      C1075   1.407       .  A
C1075      C1076   1.417       .  A
C1075     Br1082   1.932       .  S
C1076      C1077   1.431       .  A
C1076     Br1081   1.937       .  S
C1077      C1078   1.409       .  A
C1078     Br1079   1.932       .  S
C1083      C1084   1.410       .  A
C1083      C1088   1.421       .  A
C1083     Br1090   1.925       .  S
C1084      C1085   1.416       .  A
C1085      C1086   1.400       .  A
C1085     Br1092   1.939       .  S
C1086      C1087   1.404       .  A
C1086     Br1091   1.921       .  S
C1087      C1088   1.413       .  A
C1088     Br1089   1.921       .  S
C1093      C1094   1.414       .  A
C1093      C1098   1.412       .  A
C1093     Br1100   1.921       .  S
C1094      C1095   1.409       .  A
C1095      C1096   1.406       .  A
C1095     Br1102   1.930       .  S
C1096      C1097   1.409       .  A
C1096     Br1101   1.920       .  S
C1097      C1098   1.407       .  A
C1098     Br1099   1.930       .  S
C1103      C1104   1.407       .  A
C1103      C1108   1.421       .  A
C1103     Br1110   1.923       .  S
C1104      C1105   1.410       .  A
C1105      C1106   1.400       .  A
C1105     Br1112   1.932       .  S
C1106      C1107   1.413       .  A
C1106     Br1111   1.933       .  S
C1107      C1108   1.422       .  A
C1108     Br1109   1.926       .  S
C1113      C1114   1.405       .  A
C1113      C1118   1.402       .  A
C1113     Br1120   1.936       .  S
C1114      C1115   1.422       .  A
C1115      C1116   1.406       .  A
C1115     Br1122   1.937       .  S
C1116      C1117   1.408       .  A
C1116     Br1121   1.934       .  S
C1117      C1118   1.425       .  A
C1118     Br1119   1.941       .  S
C1123      C1124   1.405       .  A
C1123      C1128   1.407       .  A
C1123     Br1130   1.929       .  S
C1124      C1125   1.409       .  A
C1125      C1126   1.407       .  A
C1125     Br1132   1.918   1_556  S
C1126      C1127   1.409       .  A
C1126     Br1131   1.932       .  S
C1127      C1128   1.411       .  A
C1128     Br1129   1.919       .  S
C1133      C1134   1.416       .  A
C1133      C1138   1.422       .  A
C1133     Br1140   1.924       .  S
C1134      C1135   1.408       .  A
C1135      C1136   1.391       .  A
C1135     Br1142   1.927       .  S
C1136      C1137   1.406       .  A
C1136     Br1141   1.932       .  S
C1137      C1138   1.411       .  A
C1138     Br1139   1.924       .  S
C1143      C1144   1.415       .  A
C1143      C1148   1.407       .  A
C1143     Br1150   1.939       .  S
C1144      C1145   1.416       .  A
C1145      C1146   1.410       .  A
C1145     Br1152   1.926       .  S
C1146      C1147   1.415       .  A
C1146     Br1151   1.932       .  S
C1147      C1148   1.420       .  A
C1148     Br1149   1.940       .  S
C1153      C1154   1.414       .  A
C1153      C1158   1.420       .  A
C1153     Br1160   1.927       .  S
C1154      C1155   1.415       .  A
C1155      C1156   1.416       .  A
C1155     Br1162   1.932       .  S
C1156      C1157   1.413       .  A
C1156     Br1161   1.927       .  S
C1157      C1158   1.414       .  A
C1158     Br1159   1.929       .  S
C1163      C1164   1.412       .  A
C1163      C1168   1.409       .  A
C1163     Br1170   1.927       .  S
C1164      C1165   1.415       .  A
C1165      C1166   1.412       .  A
C1165     Br1172   1.928       .  S
C1166      C1167   1.408       .  A
C1166     Br1171   1.930       .  S
C1167      C1168   1.410       .  A
C1168     Br1169   1.929       .  S
C1173      C1174   1.406       .  A
C1173      C1178   1.414       .  A
C1173     Br1180   1.925       .  S
C1174      C1175   1.416       .  A
C1175      C1176   1.398       .  A
C1175     Br1182   1.938       .  S
C1176      C1177   1.400       .  A
C1176     Br1181   1.923       .  S
C1177      C1178   1.412       .  A
C1178     Br1179   1.919       .  S
C1183      C1184   1.416       .  A
C1183      C1188   1.418       .  A
C1183     Br1190   1.933       .  S
C1184      C1185   1.410       .  A
C1185      C1186   1.416       .  A
C1185     Br1192   1.928       .  S
C1186      C1187   1.417       .  A
C1186     Br1191   1.931       .  S
C1187      C1188   1.413       .  A
C1188     Br1189   1.927       .  S
C1193      C1194   1.427       .  A
C1193      C1198   1.416   1_556  A
C1193     Br1200   1.927       .  S
C1194      C1195   1.409       .  A
C1195      C1196   1.421   1_556  A
C1195     Br1202   1.932       .  S
C1196      C1197   1.430       .  A
C1196     Br1201   1.935       .  S
C1197      C1198   1.406       .  A
C1198     Br1199   1.934       .  S
C1203      C1204   1.412       .  A
C1203      C1208   1.409       .  A
C1203     Br1210   1.936       .  S
C1204      C1205   1.420       .  A
C1205      C1206   1.423       .  A
C1205     Br1212   1.926       .  S
C1206      C1207   1.410       .  A
C1206     Br1211   1.921       .  S
C1207      C1208   1.413       .  A
C1208     Br1209   1.923       .  S
C1213      C1214   1.412       .  A
C1213      C1218   1.417       .  A
C1213     Br1220   1.925       .  S
C1214      C1215   1.408       .  A
C1215      C1216   1.410       .  A
C1215     Br1222   1.926       .  S
C1216      C1217   1.414       .  A
C1216     Br1221   1.931       .  S
C1217      C1218   1.411       .  A
C1218     Br1219   1.924       .  S
C1223      C1224   1.418       .  A
C1223      C1228   1.418       .  A
C1223     Br1230   1.920       .  S
C1224      C1225   1.415       .  A
C1225      C1226   1.426       .  A
C1225     Br1232   1.931       .  S
C1226      C1227   1.421       .  A
C1226     Br1231   1.923       .  S
C1227      C1228   1.410       .  A
C1228     Br1229   1.926       .  S
C1233      C1234   1.413       .  A
C1233      C1238   1.408       .  A
C1233     Br1240   1.937       .  S
C1234      C1235   1.402       .  A
C1235      C1236   1.404       .  A
C1235     Br1242   1.931       .  S
C1236      C1237   1.417       .  A
C1236     Br1241   1.929       .  S
C1237      C1238   1.419       .  A
C1238     Br1239   1.929       .  S
C1243      C1244   1.415       .  A
C1243      C1248   1.401       .  A
C1243     Br1250   1.918       .  S
C1244      C1245   1.417       .  A
C1245      C1246   1.404       .  A
C1245     Br1252   1.930       .  S
C1246      C1247   1.406       .  A
C1246     Br1251   1.925       .  S
C1247      C1248   1.404       .  A
C1248     Br1249   1.937       .  S
C1253      C1254   1.406       .  A
C1253      C1258   1.420       .  A
C1253     Br1260   1.914       .  S
C1254      C1255   1.410       .  A
C1255      C1256   1.409       .  A
C1255     Br1262   1.923       .  S
C1256      C1257   1.419       .  A
C1256     Br1261   1.937       .  S
C1257      C1258   1.418       .  A
C1258     Br1259   1.926       .  S
C1263      C1264   1.412       .  A
C1263      C1268   1.407       .  A
C1263     Br1270   1.931       .  S
C1264      C1265   1.411       .  A
C1265      C1266   1.413       .  A
C1265     Br1272   1.927       .  S
C1266      C1267   1.410       .  A
C1266     Br1271   1.927       .  S
C1267      C1268   1.408       .  A
C1268     Br1269   1.926       .  S
C1273      C1274   1.427       .  A
C1273      C1278   1.420       .  A
C1273     Br1280   1.934       .  S
C1274      C1275   1.406       .  A
C1275      C1276   1.414       .  A
C1275     Br1282   1.935       .  S
C1276      C1277   1.426       .  A
C1276     Br1281   1.928       .  S
C1277      C1278   1.408       .  A
C1278     Br1279   1.930       .  S
C1283      C1284   1.415   1_556  A
C1283      C1288   1.415   1_556  A
C1283     Br1290   1.933       .  S
C1284      C1285   1.414       .  A
C1285      C1286   1.418       .  A
C1285     Br1292   1.924       .  S
C1286      C1287   1.412       .  A
C1286     Br1291   1.929       .  S
C1287      C1288   1.413       .  A
C1288     Br1289   1.927   1_554  S
C1293      C1294   1.394       .  A
C1293      C1298   1.395       .  A
C1293     Br1300   1.928   1_556  S
C1294      C1295   1.418       .  A
C1295      C1296   1.422       .  A
C1295     Br1302   1.920       .  S
C1296      C1297   1.412       .  A
C1296     Br1301   1.924       .  S
C1297      C1298   1.424       .  A
C1298     Br1299   1.931       .  S
C1303      C1304   1.421       .  A
C1303      C1308   1.409       .  A
C1303     Br1310   1.935       .  S
C1304      C1305   1.416       .  A
C1305      C1306   1.411       .  A
C1305     Br1312   1.936   1_554  S
C1306      C1307   1.420       .  A
C1306     Br1311   1.939       .  S
C1307      C1308   1.410       .  A
C1308     Br1309   1.932       .  S
C1313      C1314   1.417       .  A
C1313      C1318   1.424       .  A
C1313     Br1320   1.934       .  S
C1314      C1315   1.419       .  A
C1315      C1316   1.420       .  A
C1315     Br1322   1.925       .  S
C1316      C1317   1.419       .  A
C1316     Br1321   1.933       .  S
C1317      C1318   1.421       .  A
C1318     Br1319   1.927       .  S
C1323      C1324   1.409       .  A
C1323      C1328   1.406       .  A
C1323     Br1330   1.928       .  S
C1324      C1325   1.419       .  A
C1325      C1326   1.399       .  A
C1325     Br1332   1.927       .  S
C1326      C1327   1.407       .  A
C1326     Br1331   1.943       .  S
C1327      C1328   1.413       .  A
C1328     Br1329   1.932       .  S
C1333      C1334   1.409       .  A
C1333      C1338   1.411       .  A
C1333     Br1340   1.931       .  S
C1334      C1335   1.417       .  A
C1335      C1336   1.422       .  A
C1335     Br1342   1.929       .  S
C1336      C1337   1.415       .  A
C1336     Br1341   1.927       .  S
C1337      C1338   1.414       .  A
C1338     Br1339   1.928       .  S
C1343      C1344   1.415       .  A
C1343      C1348   1.422       .  A
C1343     Br1350   1.924       .  S
C1344      C1345   1.391       .  A
C1345      C1346   1.399       .  A
C1345     Br1352   1.929       .  S
C1346      C1347   1.431       .  A
C1346     Br1351   1.936       .  S
C1347      C1348   1.416       .  A
C1348     Br1349   1.928       .  S
C1353      C1354   1.404       .  A
C1353      C1358   1.403       .  A
C1353     Br1360   1.930       .  S
C1354      C1355   1.412       .  A
C1355      C1356   1.404       .  A
C1355     Br1362   1.924       .  S
C1356      C1357   1.405       .  A
C1356     Br1361   1.932       .  S
C1357      C1358   1.411       .  A
C1358     Br1359   1.917   1_554  S
C1363      C1364   1.411       .  A
C1363      C1368   1.414       .  A
C1363     Br1370   1.920       .  S
C1364      C1365   1.408       .  A
C1365      C1366   1.412       .  A
C1365     Br1372   1.921       .  S
C1366      C1367   1.416       .  A
C1366     Br1371   1.932       .  S
C1367      C1368   1.413       .  A
C1368     Br1369   1.929       .  S
C1373      C1374   1.413       .  A
C1373      C1378   1.405       .  A
C1373     Br1380   1.934       .  S
C1374      C1375   1.411       .  A
C1375      C1376   1.414       .  A
C1375     Br1382   1.929       .  S
C1376      C1377   1.411       .  A
C1376     Br1381   1.928       .  S
C1377      C1378   1.408       .  A
C1378     Br1379   1.931       .  S
C1383      C1384   1.413       .  A
C1383      C1388   1.413       .  A
C1383     Br1390   1.927       .  S
C1384      C1385   1.436       .  A
C1385      C1386   1.404       .  A
C1385     Br1392   1.936       .  S
C1386      C1387   1.401       .  A
C1386     Br1391   1.941       .  S
C1387      C1388   1.416       .  A
C1388     Br1389   1.929       .  S
C1393      C1394   1.417       .  A
C1393      C1398   1.412       .  A
C1393     Br1400   1.933       .  S
C1394      C1395   1.411       .  A
C1395      C1396   1.418       .  A
C1395     Br1402   1.927       .  S
C1396      C1397   1.414       .  A
C1396     Br1401   1.925       .  S
C1397      C1398   1.408       .  A
C1398     Br1399   1.927       .  S
C1403      C1404   1.411       .  A
C1403      C1408   1.417       .  A
C1403     Br1410   1.926       .  S
C1404      C1405   1.417       .  A
C1405      C1406   1.410       .  A
C1405     Br1412   1.933       .  S
C1406      C1407   1.407       .  A
C1406     Br1411   1.929       .  S
C1407      C1408   1.412       .  A
C1408     Br1409   1.925       .  S
C1413      C1414   1.423       .  A
C1413      C1418   1.411       .  A
C1413     Br1420   1.938       .  S
C1414      C1415   1.415   1_455  A
C1415      C1416   1.411       .  A
C1415     Br1422   1.936       .  S
C1416      C1417   1.421       .  A
C1416     Br1421   1.939       .  S
C1417      C1418   1.411   1_655  A
C1418     Br1419   1.935       .  S
C1423      C1424   1.413       .  A
C1423      C1428   1.421       .  A
C1423     Br1430   1.924       .  S
C1424      C1425   1.408       .  A
C1425      C1426   1.412       .  A
C1425     Br1432   1.929   1_556  S
C1426      C1427   1.417       .  A
C1426     Br1431   1.929   1_556  S
C1427      C1428   1.412       .  A
C1428     Br1429   1.925       .  S
C1433      C1434   1.410       .  A
C1433      C1438   1.427       .  A
C1433     Br1440   1.923       .  S
C1434      C1435   1.420       .  A
C1435      C1436   1.394   1_554  A
C1435     Br1442   1.929   1_554  S
C1436      C1437   1.403       .  A
C1436     Br1441   1.936       .  S
C1437      C1438   1.424   1_556  A
C1438     Br1439   1.914       .  S
C1443      C1444   1.405       .  A
C1443      C1448   1.417       .  A
C1443     Br1450   1.930       .  S
C1444      C1445   1.429       .  A
C1445      C1446   1.415       .  A
C1445     Br1452   1.934       .  S
C1446      C1447   1.403       .  A
C1446     Br1451   1.932       .  S
C1447      C1448   1.425       .  A
C1448     Br1449   1.928       .  S
C1453      C1454   1.416       .  A
C1453      C1458   1.410       .  A
C1453     Br1460   1.926       .  S
C1454      C1455   1.444       .  A
C1455      C1456   1.403       .  A
C1455     Br1462   1.949   1_455  S
C1456      C1457   1.396       .  A
C1456     Br1461   1.941       .  S
C1457      C1458   1.410       .  A
C1458     Br1459   1.929       .  S
C1463      C1464   1.412       .  A
C1463      C1468   1.397       .  A
C1463     Br1470   1.939       .  S
C1464      C1465   1.418       .  A
C1465      C1466   1.411       .  A
C1465     Br1472   1.936       .  S
C1466      C1467   1.418       .  A
C1466     Br1471   1.938       .  S
C1467      C1468   1.415       .  A
C1468     Br1469   1.941       .  S
C1473      C1474   1.413       .  A
C1473      C1478   1.414       .  A
C1473     Br1480   1.931       .  S
C1474      C1475   1.409       .  A
C1475      C1476   1.413       .  A
C1475     Br1482   1.927       .  S
C1476      C1477   1.412       .  A
C1476     Br1481   1.916       .  S
C1477      C1478   1.412       .  A
C1478     Br1479   1.922       .  S
C1483      C1484   1.421       .  A
C1483      C1488   1.421       .  A
C1483     Br1490   1.929       .  S
C1484      C1485   1.421       .  A
C1485      C1486   1.420       .  A
C1485     Br1492   1.933       .  S
C1486      C1487   1.413       .  A
C1486     Br1491   1.931       .  S
C1487      C1488   1.412       .  A
C1488     Br1489   1.928       .  S
C1493      C1494   1.409       .  A
C1493      C1498   1.402       .  A
C1493     Br1500   1.936       .  S
C1494      C1495   1.421       .  A
C1495      C1496   1.405       .  A
C1495     Br1502   1.938       .  S
C1496      C1497   1.410       .  A
C1496     Br1501   1.933   1_556  S
C1497      C1498   1.421       .  A
C1498     Br1499   1.935       .  S
C1503      C1504   1.410   1_455  A
C1503      C1508   1.403       .  A
C1503     Br1510   1.930       .  S
C1504      C1505   1.403       .  A
C1505      C1506   1.406       .  A
C1505     Br1512   1.932       .  S
C1506      C1507   1.418   1_655  A
C1506     Br1511   1.933       .  S
C1507      C1508   1.407       .  A
C1508     Br1509   1.924       .  S
C1513      C1514   1.413       .  A
C1513      C1518   1.393       .  A
C1513     Br1520   1.938       .  S
C1514      C1515   1.421       .  A
C1515      C1516   1.434       .  A
C1515     Br1522   1.921       .  S
C1516      C1517   1.420       .  A
C1516     Br1521   1.924       .  S
C1517      C1518   1.421       .  A
C1518     Br1519   1.942       .  S
C1523      C1524   1.415       .  A
C1523      C1528   1.429       .  A
C1523     Br1530   1.923       .  S
C1524      C1525   1.413       .  A
C1525      C1526   1.396       .  A
C1525     Br1532   1.933       .  S
C1526      C1527   1.409       .  A
C1526     Br1531   1.928       .  S
C1527      C1528   1.419       .  A
C1528     Br1529   1.924       .  S
C1533      C1534   1.413       .  A
C1533      C1538   1.414       .  A
C1533     Br1540   1.933       .  S
C1534      C1535   1.432       .  A
C1535      C1536   1.418       .  A
C1535     Br1542   1.943       .  S
C1536      C1537   1.416       .  A
C1536     Br1541   1.938       .  S
C1537      C1538   1.421       .  A
C1538     Br1539   1.933       .  S
C1543      C1544   1.439       .  A
C1543      C1548   1.404       .  A
C1543     Br1550   1.934       .  S
C1544      C1545   1.415       .  A
C1545      C1546   1.414       .  A
C1545     Br1552   1.932       .  S
C1546      C1547   1.416       .  A
C1546     Br1551   1.928       .  S
C1547      C1548   1.398       .  A
C1548     Br1549   1.941       .  S
C1553      C1554   1.421       .  A
C1553      C1558   1.413       .  A
C1553     Br1560   1.936       .  S
C1554      C1555   1.422       .  A
C1555      C1556   1.403       .  A
C1555     Br1562   1.943       .  S
C1556      C1557   1.413       .  A
C1556     Br1561   1.942       .  S
C1557      C1558   1.416       .  A
C1558     Br1559   1.936       .  S
C1563      C1564   1.410       .  A
C1563      C1568   1.412       .  A
C1563     Br1570   1.927       .  S
C1564      C1565   1.416       .  A
C1565      C1566   1.415       .  A
C1565     Br1572   1.930       .  S
C1566      C1567   1.408       .  A
C1566     Br1571   1.928       .  S
C1567      C1568   1.414       .  A
C1568     Br1569   1.931       .  S
C1573      C1574   1.415       .  A
C1573      C1578   1.403   1_455  A
C1573     Br1580   1.923       .  S
C1574      C1575   1.404       .  A
C1575      C1576   1.411   1_455  A
C1575     Br1582   1.926       .  S
C1576      C1577   1.422       .  A
C1576     Br1581   1.927       .  S
C1577      C1578   1.409       .  A
C1578     Br1579   1.932       .  S
C1583      C1584   1.409       .  A
C1583      C1588   1.407       .  A
C1583     Br1590   1.930       .  S
C1584      C1585   1.413       .  A
C1585      C1586   1.410       .  A
C1585     Br1592   1.928       .  S
C1586      C1587   1.408       .  A
C1586     Br1591   1.930       .  S
C1587      C1588   1.408       .  A
C1588     Br1589   1.922       .  S
C1593      C1594   1.411       .  A
C1593      C1598   1.422       .  A
C1593     Br1600   1.930       .  S
C1594      C1595   1.428       .  A
C1595      C1596   1.419       .  A
C1595     Br1602   1.934       .  S
C1596      C1597   1.409       .  A
C1596     Br1601   1.930       .  S
C1597      C1598   1.425       .  A
C1598     Br1599   1.932       .  S
C1603      C1604   1.414       .  A
C1603      C1608   1.416       .  A
C1603     Br1610   1.923       .  S
C1604      C1605   1.415       .  A
C1605      C1606   1.415       .  A
C1605     Br1612   1.930       .  S
C1606      C1607   1.410       .  A
C1606     Br1611   1.924       .  S
C1607      C1608   1.410       .  A
C1608     Br1609   1.925       .  S
C1613      C1614   1.411       .  A
C1613      C1618   1.412       .  A
C1613     Br1620   1.926       .  S
C1614      C1615   1.410       .  A
C1615      C1616   1.412       .  A
C1615     Br1622   1.927       .  S
C1616      C1617   1.411       .  A
C1616     Br1621   1.926       .  S
C1617      C1618   1.412       .  A
C1618     Br1619   1.930       .  S
C1623      C1624   1.424       .  A
C1623      C1628   1.415       .  A
C1623     Br1630   1.933       .  S
C1624      C1625   1.403       .  A
C1625      C1626   1.412       .  A
C1625     Br1632   1.931       .  S
C1626      C1627   1.423       .  A
C1626     Br1631   1.929       .  S
C1627      C1628   1.405       .  A
C1628     Br1629   1.931       .  S
C1633      C1634   1.411       .  A
C1633      C1638   1.411       .  A
C1633     Br1640   1.920       .  S
C1634      C1635   1.411   1_554  A
C1635      C1636   1.412   1_556  A
C1635     Br1642   1.933       .  S
C1636      C1637   1.413       .  A
C1636     Br1641   1.922   1_554  S
C1637      C1638   1.409       .  A
C1638     Br1639   1.924       .  S
C1643      C1644   1.414   1_554  A
C1643      C1648   1.413   1_554  A
C1643     Br1650   1.929       .  S
C1644      C1645   1.414       .  A
C1645      C1646   1.418       .  A
C1645     Br1652   1.925       .  S
C1646      C1647   1.412       .  A
C1646     Br1651   1.927       .  S
C1647      C1648   1.409       .  A
C1648     Br1649   1.925   1_656  S
C1653      C1654   1.420       .  A
C1653      C1658   1.403       .  A
C1653     Br1660   1.938       .  S
C1654      C1655   1.407       .  A
C1655      C1656   1.403       .  A
C1655     Br1662   1.934       .  S
C1656      C1657   1.421       .  A
C1656     Br1661   1.935       .  S
C1657      C1658   1.411       .  A
C1658     Br1659   1.935   1_554  S
C1663      C1664   1.409       .  A
C1663      C1668   1.420       .  A
C1663     Br1670   1.930       .  S
C1664      C1665   1.426       .  A
C1665      C1666   1.421       .  A
C1665     Br1672   1.933       .  S
C1666      C1667   1.409       .  A
C1666     Br1671   1.930       .  S
C1667      C1668   1.426       .  A
C1668     Br1669   1.933       .  S
C1673      C1674   1.421       .  A
C1673      C1678   1.414       .  A
C1673     Br1680   1.937       .  S
C1674      C1675   1.423       .  A
C1675      C1676   1.403       .  A
C1675     Br1682   1.942       .  S
C1676      C1677   1.410       .  A
C1676     Br1681   1.941       .  S
C1677      C1678   1.416       .  A
C1678     Br1679   1.935       .  S
C1683      C1684   1.411       .  A
C1683      C1688   1.414       .  A
C1683     Br1690   1.925       .  S
C1684      C1685   1.414       .  A
C1685      C1686   1.424       .  A
C1685     Br1692   1.927       .  S
C1686      C1687   1.418       .  A
C1686     Br1691   1.923       .  S
C1687      C1688   1.419       .  A
C1688     Br1689   1.934       .  S
C1693      C1694   1.413       .  A
C1693      C1698   1.414       .  A
C1693     Br1700   1.931       .  S
C1694      C1695   1.414       .  A
C1695      C1696   1.415       .  A
C1695     Br1702   1.924       .  S
C1696      C1697   1.409       .  A
C1696     Br1701   1.926       .  S
C1697      C1698   1.412       .  A
C1698     Br1699   1.926       .  S
C1703      C1704   1.417       .  A
C1703      C1708   1.421   1_455  A
C1703     Br1710   1.934       .  S
C1704      C1705   1.419       .  A
C1705      C1706   1.424       .  A
C1705     Br1712   1.929       .  S
C1706      C1707   1.419   1_455  A
C1706     Br1711   1.933       .  S
C1707      C1708   1.419       .  A
C1708     Br1709   1.929       .  S
C1713      C1714   1.412       .  A
C1713      C1718   1.412       .  A
C1713     Br1720   1.931       .  S
C1714      C1715   1.411       .  A
C1715      C1716   1.416       .  A
C1715     Br1722   1.929       .  S
C1716      C1717   1.415       .  A
C1716     Br1721   1.925       .  S
C1717      C1718   1.411       .  A
C1718     Br1719   1.923       .  S
C1723      C1724   1.414       .  A
C1723      C1728   1.416       .  A
C1723     Br1730   1.932       .  S
C1724      C1725   1.413       .  A
C1725      C1726   1.414       .  A
C1725     Br1732   1.926       .  S
C1726      C1727   1.412       .  A
C1726     Br1731   1.930       .  S
C1727      C1728   1.412       .  A
C1728     Br1729   1.924       .  S
C1733      C1734   1.417       .  A
C1733      C1738   1.397       .  A
C1733     Br1740   1.939   1_655  S
C1734      C1735   1.407       .  A
C1735      C1736   1.415       .  A
C1735     Br1742   1.925       .  S
C1736      C1737   1.415       .  A
C1736     Br1741   1.921       .  S
C1737      C1738   1.401       .  A
C1738     Br1739   1.925   1_656  S
C1743      C1744   1.422       .  A
C1743      C1748   1.413       .  A
C1743     Br1750   1.935       .  S
C1744      C1745   1.400   1_655  A
C1745      C1746   1.404       .  A
C1745     Br1752   1.924       .  S
C1746      C1747   1.416       .  A
C1746     Br1751   1.927       .  S
C1747      C1748   1.411   1_455  A
C1748     Br1749   1.931       .  S
C1753      C1754   1.416       .  A
C1753      C1758   1.419   1_655  A
C1753     Br1760   1.930       .  S
C1754      C1755   1.419   1_556  A
C1755      C1756   1.423   1_655  A
C1755     Br1762   1.927       .  S
C1756      C1757   1.418       .  A
C1756     Br1761   1.933       .  S
C1757      C1758   1.417   1_554  A
C1758     Br1759   1.929       .  S
C1763      C1764   1.408       .  A
C1763      C1768   1.401       .  A
C1763     Br1770   1.940       .  S
C1764      C1765   1.411       .  A
C1765      C1766   1.407   1_455  A
C1765     Br1772   1.929   1_455  S
C1766      C1767   1.411       .  A
C1766     Br1771   1.929       .  S
C1767      C1768   1.416   1_655  A
C1768     Br1769   1.928       .  S
C1773      C1774   1.416       .  A
C1773      C1778   1.422       .  A
C1773     Br1780   1.934       .  S
C1774      C1775   1.402       .  A
C1775      C1776   1.415       .  A
C1775     Br1782   1.930   1_545  S
C1776      C1777   1.436       .  A
C1776     Br1781   1.939       .  S
C1777      C1778   1.420       .  A
C1778     Br1779   1.928       .  S
C1783      C1784   1.416       .  A
C1783      C1788   1.421       .  A
C1783     Br1790   1.927       .  S
C1784      C1785   1.417       .  A
C1785      C1786   1.418       .  A
C1785     Br1792   1.920       .  S
C1786      C1787   1.409       .  A
C1786     Br1791   1.930       .  S
C1787      C1788   1.413       .  A
C1788     Br1789   1.926       .  S
C1793      C1794   1.412       .  A
C1793      C1798   1.423       .  A
C1793     Br1800   1.929       .  S
C1794      C1795   1.407       .  A
C1795      C1796   1.421       .  A
C1795     Br1802   1.916       .  S
C1796      C1797   1.420       .  A
C1796     Br1801   1.926       .  S
C1797      C1798   1.424       .  A
C1798     Br1799   1.931       .  S
C1803      C1804   1.436       .  A
C1803      C1808   1.407       .  A
C1803     Br1810   1.934   1_455  S
C1804      C1805   1.415       .  A
C1805      C1806   1.426       .  A
C1805     Br1812   1.928       .  S
C1806      C1807   1.422       .  A
C1806     Br1811   1.923       .  S
C1807      C1808   1.396       .  A
C1808     Br1809   1.932       .  S
C1813      C1814   1.409       .  A
C1813      C1818   1.404       .  A
C1813     Br1820   1.942       .  S
C1814      C1815   1.412       .  A
C1815      C1816   1.417       .  A
C1815     Br1822   1.930       .  S
C1816      C1817   1.424       .  A
C1816     Br1821   1.933       .  S
C1817      C1818   1.427       .  A
C1818     Br1819   1.943       .  S
C1823      C1824   1.413       .  A
C1823      C1828   1.410       .  A
C1823     Br1830   1.933       .  S
C1824      C1825   1.415       .  A
C1825      C1826   1.419       .  A
C1825     Br1832   1.925       .  S
C1826      C1827   1.411       .  A
C1826     Br1831   1.927       .  S
C1827      C1828   1.411       .  A
C1828     Br1829   1.925       .  S
C1833      C1834   1.414       .  A
C1833      C1838   1.415       .  A
C1833     Br1840   1.930       .  S
C1834      C1835   1.412       .  A
C1835      C1836   1.416       .  A
C1835     Br1842   1.927       .  S
C1836      C1837   1.415       .  A
C1836     Br1841   1.931       .  S
C1837      C1838   1.411       .  A
C1838     Br1839   1.927       .  S
C1843      C1844   1.412       .  A
C1843      C1848   1.409       .  A
C1843     Br1850   1.928       .  S
C1844      C1845   1.406       .  A
C1845      C1846   1.403       .  A
C1845     Br1852   1.931       .  S
C1846      C1847   1.415       .  A
C1846     Br1851   1.930       .  S
C1847      C1848   1.407       .  A
C1848     Br1849   1.916       .  S
C1853      C1854   1.414       .  A
C1853      C1858   1.399   1_655  A
C1853     Br1860   1.933       .  S
C1854      C1855   1.412       .  A
C1855      C1856   1.422   1_655  A
C1855     Br1862   1.924       .  S
C1856      C1857   1.414       .  A
C1856     Br1861   1.919       .  S
C1857      C1858   1.405       .  A
C1858     Br1859   1.922       .  S
C1863      C1864   1.421       .  A
C1863      C1868   1.424       .  A
C1863     Br1870   1.934       .  S
C1864      C1865   1.416       .  A
C1865      C1866   1.424       .  A
C1865     Br1872   1.931       .  S
C1866      C1867   1.423       .  A
C1866     Br1871   1.926       .  S
C1867      C1868   1.419       .  A
C1868     Br1869   1.925       .  S
