geometry optimzed in LAMMPS
_audit_creation_date              2020-12-01 
_audit_creation_method            'lammps2cif' 
_symmetry_space_group_name_H-M    'P1' 
_symmetry_Int_Tables_number       1 
_symmetry_cell_setting            triclinic 
loop_ 
_symmetry_equiv_pos_as_xyz 
  x,y,z 
_cell_length_a                    33.70471519 
_cell_length_b                    33.74537734931786 
_cell_length_c                    45.22974851801213 
_cell_angle_alpha                 89.17618679802203 
_cell_angle_beta                  90.44166861631372 
_cell_angle_gamma                 119.40773637014935 
loop_ 
_atom_site_label 
_atom_site_type_symbol 
_atom_site_fract_x 
_atom_site_fract_y 
_atom_site_fract_z 
_atom_site_charge 
O1          O  0.59861122  0.13184118  0.05433318    -0.86200
O2          O  0.67686729  0.15325737  0.02544197    -0.83300
C3          C  0.68517861  0.12125633  0.03143037     0.97300
O4          O  0.65651649  0.08067529  0.02298938    -0.83300
O5          O  0.56559521  0.00918052  0.48630753    -0.85900
C6          C  0.52817675  0.99447594  0.50081594     1.01800
O7          O  0.52797990  0.02049722  0.51961038    -0.78700
O8          O  0.52701808  0.09281727  0.04052861    -0.78900
C9          C  0.55717405  0.10730763  0.06075055     1.01700
O10         O  0.57058389  0.17132505  0.00695781    -0.86200
O11         O  0.63972504  0.17505070  0.97394832    -0.83300
C12         C  0.67026311  0.17775656  0.46867819     0.97300
O13         O  0.67321842  0.14154236  0.47185361    -0.83300
O14         O  0.59434306  0.07962699  0.44378393    -0.85900
C15         C  0.55276677  0.06102118  0.43720418     1.01700
O16         O  0.52238984  0.04818162  0.45728894    -0.78700
O17         O  0.52458760  0.11726861  0.97796675    -0.78900
C18         C  0.54039579  0.15674899  0.98705421     1.01700
Cr19       Cr  0.61952596  0.15446903  0.01414615     1.93700
Cr20       Cr  0.61891224  0.07783253  0.48266151     1.93200
Cr21       Cr  0.52724186  0.07110176  0.49968323     1.39100
O22         O  0.59088599  0.09977834  0.99963048    -1.24000
O23         O  0.60402978  0.16362955  0.26349230    -0.86200
O24         O  0.54355697  0.17799445  0.23123253    -0.83300
C25         C  0.50777656  0.17584426  0.22090787     0.97300
O26         O  0.47009709  0.13917934  0.22349497    -0.83300
O27         O  0.49062733  0.08455840  0.19321948    -0.85900
C28         C  0.51528149  0.06853130  0.18507387     1.01800
O29         O  0.53058695  0.05070565  0.20388869    -0.78700
O30         O  0.60063503  0.11418761  0.23193027    -0.78900
C31         C  0.62142246  0.15297328  0.24260897     1.01700
O32         O  0.53306427  0.11543937  0.30636733    -0.86200
O33         O  0.47959663  0.14362490  0.27889623    -0.83300
C34         C  0.43881123  0.11205407  0.28097506     0.97300
O35         O  0.42771002  0.07334382  0.26921137    -0.83300
O36         O  0.44534438  0.00748490  0.22923461    -0.85900
C37         C  0.46609409  0.98979908  0.24306726     1.01700
O38         O  0.49027818  0.01243050  0.26381265    -0.78700
O39         O  0.56319923  0.07435923  0.29141234    -0.78900
C40         C  0.54699815  0.08767658  0.31200276     1.01700
Cr41       Cr  0.53868826  0.14663551  0.26868475     1.93700
Cr42       Cr  0.46137078  0.07609400  0.23107968     1.93200
Cr43       Cr  0.54417748  0.06439602  0.24811765     1.39100
O44         O  0.51478312  0.09554819  0.24942270    -1.24000
O45         O  0.53011463  0.36610038  0.05847390    -0.86200
O46         O  0.47495878  0.29058839  0.02735171    -0.83300
C47         C  0.43527163  0.28378357  0.03192643     0.97300
O48         O  0.42649211  0.32077512  0.52355128    -0.83300
O49         O  0.44475559  0.40966401  0.48928831    -0.85900
C50         C  0.46759334  0.44570034  0.50447451     1.01800
O51         O  0.49266801  0.44323838  0.52347581    -0.78700
O52         O  0.56575551  0.43829304  0.04602250    -0.78900
C53         C  0.54895926  0.40708099  0.06596820     1.01700
O54         O  0.60051164  0.39296233  0.01497240    -0.86200
O55         O  0.53771365  0.32444643  0.97954776    -0.83300
C56         C  0.50202648  0.29918636  0.47025012     0.97300
O57         O  0.46514371  0.30036036  0.47410442    -0.83300
O58         O  0.48542906  0.38005213  0.44735040    -0.85900
C59         C  0.51211839  0.42108040  0.44125028     1.01700
O60         O  0.52833355  0.45106873  0.46142342    -0.78700
O61         O  0.59569348  0.43960965  0.98358227    -0.78900
C62         C  0.61802454  0.42323525  0.99512114     1.01700
Cr63       Cr  0.53441168  0.34587103  0.01886364     1.93700
Cr64       Cr  0.45842599  0.35508814  0.48569429     1.93200
Cr65       Cr  0.54393107  0.44370525  0.50433622     1.39100
O66         O  0.51298524  0.38396269  0.50316075    -1.24000
O67         O  0.58612088  0.36813822  0.26312032    -0.86200
O68         O  0.66052147  0.43602345  0.23691699    -0.83300
C69         C  0.69207676  0.47416201  0.22893748     0.97300
O70         O  0.68662029  0.50831027  0.22997432    -0.83300
O71         O  0.60816306  0.47922297  0.19748350    -0.85900
C72         C  0.56701844  0.45331134  0.19086221     1.01800
O73         O  0.53590404  0.43764052  0.21072172    -0.78700
O74         O  0.52769017  0.36887292  0.24218342    -0.78900
C75         C  0.55074743  0.34984579  0.24717511     1.01700
O76         O  0.59996712  0.42964215  0.31229192    -0.86200
O77         O  0.67749654  0.49379775  0.28725125    -0.83300
C78         C  0.68429725  0.53429179  0.28713351     0.97300
O79         O  0.65721109  0.54459191  0.27303854    -0.83300
O80         O  0.57514981  0.52358690  0.23238217    -0.85900
C81         C  0.53968419  0.50493432  0.24819677     1.01700
O82         O  0.54169069  0.48304620  0.26961422    -0.78700
O83         O  0.53043765  0.41082548  0.29886659    -0.78900
C84         C  0.56001630  0.41987836  0.31897664     1.01700
Cr85       Cr  0.62834737  0.43313493  0.27362746     1.93700
Cr86       Cr  0.62876210  0.51004201  0.23541883     1.93200
Cr87       Cr  0.53792616  0.42747735  0.25551311     1.39100
O88         O  0.59822498  0.45619437  0.25494985    -1.24000
O89         O  0.81889451  0.40734441  0.26838484    -0.86200
O90         O  0.79658661  0.33157544  0.23498467    -0.83300
C91         C  0.79611652  0.29739090  0.22379206     0.97300
O92         O  0.83161832  0.29320415  0.22511750    -0.83300
O93         O  0.89074873  0.36753156  0.19465544    -0.85900
C94         C  0.91008533  0.40893376  0.18787008     1.01800
O95         O  0.92895725  0.43973718  0.20725055    -0.78700
O96         O  0.86931668  0.45037258  0.23573332    -0.78900
C97         C  0.83240082  0.43747535  0.24837119     1.01700
O98         O  0.86204164  0.37599848  0.30947548    -0.86200
O99         O  0.82848296  0.29578094  0.28083974    -0.83300
C100        C  0.85851559  0.28367909  0.28193651     0.97300
O101        O  0.89752152  0.30897353  0.26975274    -0.83300
O102        O  0.96663919  0.39060711  0.23025749    -0.85900
C103        C  0.98747506  0.42758182  0.24471056     1.01700
O104        O  0.96631554  0.43095935  0.26588485    -0.78700
O105        O  0.90640378  0.44646694  0.29445506    -0.78900
C106        C  0.89009031  0.41673451  0.31516401     1.01700
Cr107      Cr  0.83011193  0.35456019  0.27194443     1.93700
Cr108      Cr  0.89674128  0.34282433  0.23225935     1.93200
Cr109      Cr  0.91606390  0.43820347  0.25119376     1.39100
O110        O  0.88110054  0.37863425  0.25190174    -1.24000
O111        O  0.84536243  0.43450808  0.05828661    -0.86200
O112        O  0.82847905  0.49589281  0.03129959    -0.83300
C113        C  0.86192832  0.53599582  0.03299152     0.97300
O114        O  0.90026052  0.54544905  0.02116073    -0.83300
O115        O  0.96550761  0.52801481  0.48324693    -0.85900
C116        C  0.98294991  0.50735523  0.49754299     1.01800
O117        O  0.95926061  0.48010875  0.51727507    -0.78700
O118        O  0.88718392  0.40424095  0.04531270    -0.78900
C119        C  0.87062945  0.41831244  0.06518932     1.01700
O120        O  0.79832127  0.36849478  0.01316856    -0.86200
O121        O  0.79333616  0.43498943  0.98115835    -0.83300
C122        C  0.79764274  0.47222009  0.47563817     0.97300
O123        O  0.83597755  0.50836363  0.47622095    -0.83300
O124        O  0.89033546  0.48464155  0.44531355    -0.85900
C125        C  0.90763182  0.46033980  0.43869516     1.01700
O126        O  0.92139625  0.44293457  0.45858294    -0.78700
O127        O  0.85154922  0.36938025  0.98584109    -0.78900
C128        C  0.81127827  0.34978668  0.99451852     1.01700
Cr129      Cr  0.82011607  0.43479765  0.01966435     1.93700
Cr130      Cr  0.89808520  0.51447852  0.48342873     1.93200
Cr131      Cr  0.90436929  0.42873171  0.50164982     1.39100
O132        O  0.87331633  0.45685295  0.00242613    -1.24000
O133        O  0.52853865  0.77278451  0.22599195    -0.86200
O134        O  0.50225637  0.82994117  0.20141125    -0.83300
C135        C  0.53397038  0.87098621  0.19884611     0.97300
O136        O  0.56971624  0.88031423  0.18386606    -0.83300
O137        O  0.62736248  0.85821685  0.14216984    -0.85900
C138        C  0.64775673  0.84108560  0.15691802     1.01800
O139        O  0.62691158  0.81686981  0.17841809    -0.78700
O140        O  0.56791788  0.74255334  0.20831760    -0.78900
C141        C  0.55533503  0.75727190  0.23001535     1.01700
O142        O  0.47383640  0.70198984  0.18358609    -0.86200
O143        O  0.45652446  0.76388939  0.15552350    -0.83300
C144        C  0.45875543  0.80040803  0.14692173     0.97300
O145        O  0.49692000  0.83636356  0.14491058    -0.83300
O146        O  0.54603164  0.81085869  0.10997199    -0.85900
C147        C  0.56487877  0.78877334  0.10178304     1.01700
O148        O  0.58344640  0.77420241  0.12049563    -0.78700
O149        O  0.52342049  0.70488536  0.15150310    -0.78900
C150        C  0.48562120  0.68354738  0.16381710     1.01700
Cr151      Cr  0.49371104  0.76842397  0.19014200     1.93700
Cr152      Cr  0.55975534  0.84300903  0.14724586     1.93200
Cr153      Cr  0.57377501  0.76195769  0.16503883     1.39100
O154        O  0.54221622  0.79088828  0.16759547    -1.24000
O155        O  0.46562178  0.73673178  0.41641296    -0.86200
O156        O  0.46740107  0.66832492  0.38854788    -0.83300
C157        C  0.46350433  0.62992507  0.38671886     0.97300
O158        O  0.49861079  0.62673435  0.39290066    -0.83300
O159        O  0.56142364  0.70455326  0.36301156    -0.85900
C160        C  0.58024733  0.74586689  0.35529993     1.01800
O161        O  0.59338699  0.77734620  0.37462724    -0.78700
O162        O  0.52741574  0.78982470  0.39570094    -0.78900
C163        C  0.48530433  0.77052548  0.39925612     1.01700
O164        O  0.49768842  0.71254264  0.46913822    -0.86200
O165        O  0.48350382  0.63459402  0.44550165    -0.83300
C166        C  0.51497091  0.62602155  0.45281456     0.97300
O167        O  0.55571703  0.65252263  0.44335542    -0.83300
O168        O  0.62930613  0.73329110  0.40574361    -0.85900
C169        C  0.64361946  0.77010256  0.42000180     1.01700
O170        O  0.61655612  0.76921147  0.43849932    -0.78700
O171        O  0.55119648  0.78226539  0.45826077    -0.78900
C172        C  0.52778419  0.75128453  0.47727620     1.01700
Cr173      Cr  0.48178182  0.68975236  0.42895575     1.93700
Cr174      Cr  0.56070437  0.68209499  0.40297785     1.93200
Cr175      Cr  0.57059876  0.77627939  0.41703462     1.39100
O176        O  0.53795240  0.71658784  0.41691883    -1.24000
O177        O  0.26546055  0.49553599  0.43932065    -0.86200
O178        O  0.20456800  0.50944853  0.40546054    -0.83300
C179        C  0.16846750  0.50415798  0.39340028     0.97300
O180        O  0.13160054  0.46643248  0.39583290    -0.83300
O181        O  0.15264598  0.41106294  0.36672175    -0.85900
C182        C  0.17691476  0.39438007  0.35933264     1.01800
O183        O  0.19525994  0.38110170  0.37884541    -0.78700
O184        O  0.26413934  0.45110820  0.40480840    -0.78900
C185        C  0.28418638  0.48835954  0.41761466     1.01700
O186        O  0.19312833  0.44537412  0.48019870    -0.86200
O187        O  0.13972643  0.47286075  0.45184776    -0.83300
C188        C  0.09970128  0.43985312  0.45370636     0.97300
O189        O  0.09004148  0.40142575  0.44244208    -0.83300
O190        O  0.11083118  0.33611658  0.40609607    -0.85900
C191        C  0.13393103  0.32034939  0.41946395     1.01700
O192        O  0.16032448  0.34457862  0.43894608    -0.78700
O193        O  0.23124085  0.41233687  0.46470969    -0.78900
C194        C  0.21203641  0.42183933  0.48546180     1.01700
Cr195      Cr  0.19949252  0.47736164  0.44283462     1.93700
Cr196      Cr  0.12434076  0.40414289  0.40498872     1.93200
Cr197      Cr  0.21063116  0.39878916  0.42204890     1.39100
O198        O  0.17788712  0.42646599  0.42332324    -1.24000
O199        O  0.26984285  0.43712169  0.23224214    -0.86200
O200        O  0.34932196  0.46372195  0.20358041    -0.83300
C201        C  0.35593585  0.43006100  0.20298308     0.97300
O202        O  0.32717763  0.39335219  0.19014387    -0.83300
O203        O  0.23965704  0.33363791  0.15323023    -0.85900
C204        C  0.20188264  0.31847724  0.16746767     1.01800
O205        O  0.20279894  0.34167842  0.18859870    -0.78700
O206        O  0.20017370  0.40992489  0.21573202    -0.78900
C207        C  0.22771312  0.41650638  0.23687847     1.01700
O208        O  0.24971893  0.49315563  0.19273905    -0.86200
O209        O  0.32256030  0.50706015  0.15994578    -0.83300
C210        C  0.35351180  0.50297297  0.14751178     0.97300
O211        O  0.35183596  0.46430077  0.14697318    -0.83300
O212        O  0.27396674  0.41217677  0.11646651    -0.85900
C213        C  0.23279428  0.39485481  0.10945867     1.01700
O214        O  0.20205948  0.38021312  0.12926313    -0.78700
O215        O  0.20667150  0.45067157  0.15713195    -0.78900
C216        C  0.22316004  0.48669391  0.17125178     1.01700
Cr217      Cr  0.29569261  0.47183990  0.19574916     1.93700
Cr218      Cr  0.29582535  0.40119001  0.15384828     1.93200
Cr219      Cr  0.20653141  0.39698989  0.17294937     1.39100
O220        O  0.26615031  0.42319222  0.17416945    -1.24000
O221        O  0.18576531  0.71008400  0.23158877    -0.86200
O222        O  0.14410198  0.62758478  0.20434392    -0.83300
C223        C  0.10205095  0.61426683  0.20113248     0.97300
O224        O  0.08953976  0.63922225  0.18648800    -0.83300
O225        O  0.10623937  0.72232488  0.14612673    -0.85900
C226        C  0.12084750  0.75933185  0.16064280     1.01800
O227        O  0.14350108  0.76232505  0.18290521    -0.78700
O228        O  0.21718762  0.77990364  0.21404861    -0.78900
C229        C  0.19987392  0.75172158  0.23551576     1.01700
O230        O  0.26521444  0.73988991  0.19463088    -0.86200
O231        O  0.21700654  0.66222579  0.16270457    -0.83300
C232        C  0.18546603  0.62846211  0.14994724     0.97300
O233        O  0.14600675  0.62451979  0.14752024    -0.83300
O234        O  0.16191490  0.69703710  0.11430064    -0.85900
C235        C  0.18224349  0.73799339  0.10662365     1.01700
O236        O  0.19221198  0.76924281  0.12549352    -0.78700
O237        O  0.25962547  0.77853799  0.15746206    -0.78900
C238        C  0.28257755  0.76630772  0.17262642     1.01700
Cr239      Cr  0.20143555  0.68666636  0.19677370     1.93700
Cr240      Cr  0.12828711  0.67362500  0.15090538     1.93200
Cr241      Cr  0.20119852  0.76905413  0.17036178     1.39100
O242        O  0.17682950  0.70960005  0.17270162    -1.24000
O243        O  0.24210941  0.69584148  0.42445865    -0.86200
O244        O  0.31389650  0.76387790  0.39344142    -0.83300
C245        C  0.34454258  0.80258422  0.38472474     0.97300
O246        O  0.34176039  0.83772480  0.39094704    -0.83300
O247        O  0.26214364  0.81994639  0.36503850    -0.85900
C248        C  0.22075963  0.79632299  0.35842621     1.01800
O249        O  0.19078351  0.77584927  0.37849908    -0.78700
O250        O  0.19055581  0.70268725  0.39898077    -0.78900
C251        C  0.20948193  0.68033990  0.40627337     1.01700
O252        O  0.26602646  0.75848186  0.47321615    -0.86200
O253        O  0.34321071  0.81840495  0.44523026    -0.83300
C254        C  0.34932531  0.85729152  0.45166756     0.97300
O255        O  0.31950970  0.86843728  0.44322378    -0.83300
O256        O  0.23336901  0.85592325  0.40980567    -0.85900
C257        C  0.19626312  0.83114549  0.42360393     1.01700
O258        O  0.19783467  0.80446152  0.44185053    -0.78700
O259        O  0.19399417  0.72927860  0.46153449    -0.78900
C260        C  0.22551652  0.74455684  0.48094638     1.01700
Cr261      Cr  0.28857923  0.76037656  0.43304016     1.93700
Cr262      Cr  0.28678444  0.84199475  0.40425188     1.93200
Cr263      Cr  0.19707741  0.75512347  0.42034278     1.39100
O264        O  0.25730854  0.78548224  0.41896578    -1.24000
O265        O  0.16671753  0.09346930  0.38459816    -0.86200
O266        O  0.14826344  0.15372687  0.35777450    -0.83300
C267        C  0.18232428  0.19253228  0.36250960     0.97300
O268        O  0.22116319  0.20208115  0.35141800    -0.83300
O269        O  0.28739505  0.18225973  0.31372015    -0.85900
C270        C  0.30117090  0.15780126  0.32768816     1.01800
O271        O  0.27497412  0.13204266  0.34681666    -0.78700
O272        O  0.20453290  0.05987301  0.36981936    -0.78900
C273        C  0.19151454  0.07621269  0.39049268     1.01700
O274        O  0.12110185  0.02794736  0.33873546    -0.86200
O275        O  0.11623817  0.09482875  0.30717593    -0.83300
C276        C  0.11995239  0.13243185  0.29979908     0.97300
O277        O  0.15825094  0.16856467  0.30326352    -0.83300
O278        O  0.21445130  0.14660545  0.27295922    -0.85900
C279        C  0.22997100  0.12127571  0.26508534     1.01700
O280        O  0.24354387  0.10279600  0.28454632    -0.78700
O281        O  0.17240631  0.03322224  0.30781831    -0.78900
C282        C  0.13350155  0.01139646  0.31828329     1.01700
Cr283      Cr  0.14148958  0.09377438  0.34581023     1.93700
Cr284      Cr  0.21984175  0.17196474  0.31223028     1.93200
Cr285      Cr  0.22222927  0.08416910  0.32759289     1.39100
O286        O  0.19486519  0.11683752  0.32885078    -1.24000
O287        O  0.11944738  0.04389417  0.09125248    -0.86200
O288        O  0.11625408  0.97184712  0.06238436    -0.83300
C289        C  0.12425300  0.94115577  0.05398301     0.97300
O290        O  0.16416308  0.94639128  0.05623312    -0.83300
O291        O  0.21478870  0.02391911  0.02488448    -0.85900
C292        C  0.22813449  0.06406149  0.01643636     1.01800
O293        O  0.24128101  0.09563936  0.03535579    -0.78700
O294        O  0.16702964  0.08829068  0.05786504    -0.78900
C295        C  0.12847372  0.07007958  0.06899366     1.01700
O296        O  0.17210786  0.02954291  0.13765477    -0.86200
O297        O  0.15491896  0.95022486  0.11246717    -0.83300
C298        C  0.18933025  0.94462811  0.11435301     0.97300
O299        O  0.22737650  0.97438096  0.10268809    -0.83300
O300        O  0.28892106  0.06332609  0.06552361    -0.85900
C301        C  0.30064386  0.10097558  0.07883215     1.01700
O302        O  0.27380930  0.09996601  0.09762330    -0.78700
O303        O  0.20082310  0.09874804  0.11956276    -0.78900
C304        C  0.19290748  0.07188367  0.14154522     1.01700
Cr305      Cr  0.14409422  0.00116551  0.09976886     1.93700
Cr306      Cr  0.22328887  0.00471520  0.06423829     1.93200
Cr307      Cr  0.21933898  0.09172190  0.07807787     1.39100
O308        O  0.19591168  0.03239145  0.08103728    -1.24000
O309        O  0.92733305  0.76786594  0.39588877    -0.86200
O310        O  0.00806907  0.80223997  0.36604594    -0.83300
C311        C  0.01681268  0.77001963  0.36772145     0.97300
O312        O  0.98917841  0.73181672  0.35588219    -0.83300
O313        O  0.90458953  0.66646473  0.31893437    -0.85900
C314        C  0.86683137  0.64842573  0.33304151     1.01800
O315        O  0.86329148  0.67127440  0.35294881    -0.78700
O316        O  0.85642138  0.73598419  0.38044619    -0.78900
C317        C  0.88524311  0.74537572  0.40111200     1.01700
O318        O  0.90024871  0.81877066  0.35888420    -0.86200
O319        O  0.97251715  0.83782098  0.32323263    -0.83300
C320        C  0.00245619  0.83495004  0.30843860     0.97300
O321        O  0.00629971  0.79915896  0.30989206    -0.83300
O322        O  0.93074125  0.74149689  0.28109615    -0.85900
C323        C  0.88945511  0.72534603  0.27456495     1.01700
O324        O  0.85884567  0.70998987  0.29435891    -0.78700
O325        O  0.85877152  0.77757317  0.32266971    -0.78900
C326        C  0.87225535  0.81187773  0.33835937     1.01700
Cr327      Cr  0.95014464  0.80325478  0.35958806     1.93700
Cr328      Cr  0.95537418  0.73494888  0.31876636     1.93200
Cr329      Cr  0.86289002  0.72503037  0.33769731     1.39100
O330        O  0.92272704  0.75411826  0.33849922    -1.24000
O331        O  0.93204547  0.82921313  0.10098819    -0.86200
O332        O  0.87212267  0.84461757  0.06894549    -0.83300
C333        C  0.83618978  0.84259180  0.05931012     0.97300
O334        O  0.79993727  0.80434653  0.05855111    -0.83300
O335        O  0.82643998  0.74999049  0.02860765    -0.85900
C336        C  0.84853474  0.72968297  0.02353681     1.01800
O337        O  0.86087566  0.71237116  0.04424928    -0.78700
O338        O  0.92826506  0.77532182  0.07293493    -0.78900
C339        C  0.94969310  0.81452375  0.08267047     1.01700
O340        O  0.86058999  0.78077503  0.14420256    -0.86200
O341        O  0.80516647  0.80467883  0.11532251    -0.83300
C342        C  0.76426193  0.77261131  0.11429488     0.97300
O343        O  0.75423230  0.73559077  0.10086440    -0.83300
O344        O  0.77613543  0.67242189  0.06409855    -0.85900
C345        C  0.79309448  0.65273145  0.07997533     1.01700
O346        O  0.81567099  0.67449312  0.10165936    -0.78700
O347        O  0.88898027  0.73792271  0.13026281    -0.78900
C348        C  0.87522122  0.75381007  0.15043148     1.01700
Cr349      Cr  0.86605663  0.81108209  0.10599160     1.93700
Cr350      Cr  0.79231454  0.74102614  0.06511776     1.93200
Cr351      Cr  0.87119065  0.72699185  0.08757656     1.39100
O352        O  0.84322416  0.75969869  0.08649955    -1.24000
O353        O  0.86050158  0.04530969  0.39965380    -0.86200
O354        O  0.80607063  0.96530229  0.37357330    -0.83300
C355        C  0.76460456  0.95542558  0.37285910     0.97300
O356        O  0.75340185  0.98224918  0.35948252    -0.83300
O357        O  0.77176578  0.06499190  0.32024017    -0.85900
C358        C  0.79050274  0.10127642  0.33550565     1.01800
O359        O  0.81274294  0.10015107  0.35692224    -0.78700
O360        O  0.88890333  0.11530637  0.38327418    -0.78900
C361        C  0.87359370  0.08652309  0.40438929     1.01700
O362        O  0.93193875  0.06796016  0.35504770    -0.86200
O363        O  0.87199965  0.99260261  0.32594874    -0.83300
C364        C  0.83634637  0.95764351  0.31849402     0.97300
O365        O  0.79895475  0.95826096  0.31741907    -0.83300
O366        O  0.82048453  0.03531268  0.28462798    -0.85900
C367        C  0.84076526  0.07656245  0.27711507     1.01700
O368        O  0.85415611  0.10760602  0.29650726    -0.78700
O369        O  0.92565973  0.11560557  0.32468851    -0.78900
C370        C  0.94811011  0.09819517  0.33479277     1.01700
Cr371      Cr  0.86638350  0.01980378  0.36234095     1.93700
Cr372      Cr  0.78925098  0.01297977  0.32229298     1.93200
Cr373      Cr  0.86836201  0.10608969  0.34068907     1.39100
O374        O  0.84166130  0.04629910  0.34178842    -1.24000
O375        O  0.89333058  0.03353672  0.10726358    -0.86200
O376        O  0.96502132  0.08561218  0.07109821    -0.83300
C377        C  0.99653307  0.11785114  0.05680711     0.97300
O378        O  0.00180521  0.15789079  0.05837797    -0.83300
O379        O  0.92566679  0.14662944  0.03160188    -0.85900
C380        C  0.88390588  0.12476894  0.02587702     1.01800
O381        O  0.85425929  0.11088855  0.04638115    -0.78700
O382        O  0.84947666  0.03999721  0.07443650    -0.78900
C383        C  0.86493876  0.01699714  0.08643629     1.10700
O384        O  0.92643868  0.10957717  0.14688816    -0.86200
O385        O  0.00598135  0.15363136  0.11494655    -0.83300
C386        C  0.01836375  0.19548912  0.11584972     0.97300
O387        O  0.99147652  0.20903419  0.10509039    -0.83300
O388        O  0.90505345  0.19774780  0.07031265    -0.85900
C389        C  0.86749474  0.17833947  0.08473569     1.01700
O390        O  0.86650110  0.15395605  0.10569407    -0.78700
O391        O  0.85475451  0.07907351  0.13325933    -0.78900
C392        C  0.88526952  0.09541385  0.15328100     1.01700
Cr393      Cr  0.94571967  0.09744802  0.10875645     1.93700
Cr394      Cr  0.95351447  0.17514436  0.06884377     1.93200
Cr395      Cr  0.85972836  0.09785259  0.09013976     1.39100
O396        O  0.91960360  0.12360255  0.08913544    -1.24000
C397        C  0.83775327  0.06614177  0.45431670    -0.10000
C398        C  0.86977779  0.09978901  0.43506523     0.06200
C399        C  0.89667029  0.14417287  0.44592986    -0.03800
C400        C  0.89499482  0.15248228  0.47598960    -0.08200
C401        C  0.86612674  0.11771665  0.49576231     0.05300
C402        C  0.83527723  0.07485382  0.48425862    -0.03300
Br403      Br  0.79163014  0.02583447  0.50846170    -0.03000
H404        H  0.81502971  0.03230682  0.44621005     0.09200
H405        H  0.91831949  0.18602234  0.48432102     0.07200
Br406      Br  0.93837341  0.19448620  0.42179039    -0.03400
C407        C  0.89116213  0.12230231  0.23548909    -0.10000
C408        C  0.84877579  0.08740871  0.24517201     0.06200
C409        C  0.81662410  0.05922774  0.22393334    -0.03800
C410        C  0.82866578  0.06354117  0.19409254    -0.08200
C411        C  0.87245168  0.09580254  0.18459956     0.05300
C412        C  0.90318157  0.12690152  0.20550565    -0.03300
Br413      Br  0.96166237  0.17698272  0.19479997    -0.03000
H414        H  0.91583093  0.14477460  0.25143279     0.09200
H415        H  0.80401158  0.04041659  0.17839819     0.07200
Br416      Br  0.75544046  0.01417740  0.23422514    -0.03400
C417        C  0.80335938  0.89014475  0.07488670    -0.10000
C418        C  0.83499350  0.88561959  0.05710741     0.06200
C419        C  0.87244205  0.92509482  0.04559223    -0.03800
C420        C  0.88012945  0.96787900  0.05426378    -0.08200
C421        C  0.85169639  0.97183780  0.07500627     0.05300
C422        C  0.81175433  0.93302430  0.08411434    -0.03300
Br423      Br  0.77019586  0.93717933  0.11094845    -0.03000
H424        H  0.77477805  0.86054228  0.08399913     0.09200
H425        H  0.90886501  0.99783393  0.04572865     0.07200
Br426      Br  0.91548354  0.92206771  0.01954396    -0.03400
C427        C  0.84974586  0.85521004  0.30387208    -0.10000
C428        C  0.85560969  0.84394624  0.33310651     0.06200
C429        C  0.84987679  0.86693953  0.35680849    -0.03800
C430        C  0.84158282  0.90249548  0.35101783    -0.08200
C431        C  0.83677368  0.91482274  0.32197842     0.05300
C432        C  0.84041162  0.89073546  0.29820622    -0.03300
Br433      Br  0.83797081  0.90843676  0.25810687    -0.03000
H434        H  0.85546286  0.83878250  0.28561425     0.09200
H435        H  0.84133907  0.92175866  0.36958697     0.07200
Br436      Br  0.85419573  0.85284081  0.39772611    -0.03400
C437        C  0.90311101  0.73355860  0.45214620    -0.10000
C438        C  0.87071053  0.73244894  0.43188393     0.06200
C439        C  0.82754130  0.72312199  0.44219298    -0.03800
C440        C  0.81941108  0.71920638  0.47246791    -0.08200
C441        C  0.85349653  0.72476868  0.49272349     0.05300
C442        C  0.89512664  0.73031832  0.48239384    -0.03300
Br443      Br  0.94438853  0.73889690  0.50797928    -0.03000
H444        H  0.93600821  0.73942778  0.44455973     0.09200
H445        H  0.78684311  0.71394271  0.48032328     0.07200
Br446      Br  0.77942263  0.71936889  0.41715669    -0.03400
C447        C  0.84829065  0.74838466  0.20200183    -0.10000
C448        C  0.87563824  0.74099469  0.18185938     0.06200
C449        C  0.90209882  0.72182413  0.19251951    -0.03800
C450        C  0.90353917  0.71426650  0.22282219    -0.08200
C451        C  0.87830877  0.72426265  0.24297191     0.05300
C452        C  0.84892505  0.73960112  0.23220465    -0.03300
Br453      Br  0.81083988  0.75169336  0.25745425    -0.03000
H454        H  0.82649148  0.76161482  0.19432449     0.09200
H455        H  0.92576937  0.70174660  0.23086814     0.07200
Br456      Br  0.93903996  0.70703278  0.16787037    -0.03400
C457        C  0.01878145  0.06183176  0.04294118    -0.10000
C458        C  0.03066586  0.10807147  0.04354024     0.06200
C459        C  0.07717719  0.14099737  0.04262468    -0.03800
C460        C  0.10950023  0.12737588  0.04883474    -0.08200
C461        C  0.09541600  0.08175119  0.05636887     0.05300
C462        C  0.05032055  0.04845362  0.05099129    -0.03300
Br463      Br  0.02907199  0.98471415  0.05610643    -0.03000
H464        H  0.98396059  0.03603583  0.04097070     0.09200
H465        H  0.14501971  0.15304194  0.05071846     0.07200
Br466      Br  0.09827448  0.20489192  0.03766232    -0.03400
C467        C  0.07612035  0.86748407  0.07569595    -0.10000
C468        C  0.08448181  0.89614656  0.05102403     0.06200
C469        C  0.04753849  0.89149757  0.03395538    -0.03800
C470        C  0.00326282  0.86488495  0.04471276    -0.08200
C471        C  0.99597032  0.84235955  0.07212214     0.05300
C472        C  0.03218389  0.84123343  0.08664235    -0.03300
Br473      Br  0.02381693  0.80744174  0.12270418    -0.03000
H474        H  0.10353443  0.87035010  0.08884480     0.09200
H475        H  0.97479090  0.86273589  0.03217213     0.07200
Br476      Br  0.05716377  0.92395056  0.99723132    -0.03400
C477        C  0.08270103  0.88821079  0.29777733    -0.10000
C478        C  0.03712740  0.87727906  0.29473758     0.06200
C479        C  0.02672947  0.91265059  0.29048936    -0.03800
C480        C  0.05871278  0.95658436  0.29840674    -0.08200
C481        C  0.10263065  0.96646686  0.30651312     0.05300
C482        C  0.11594666  0.93316025  0.30286770    -0.03300
Br483      Br  0.17747320  0.94570523  0.30730243    -0.03000
H484        H  0.09173491  0.86156340  0.29960241     0.09200
H485        H  0.04897215  0.98268571  0.29903226     0.07200
Br486      Br  0.96740311  0.90119546  0.27809871    -0.03400
C487        C  0.20232624  0.10841990  0.44105912    -0.10000
C488        C  0.20560734  0.07728152  0.42200563     0.06200
C489        C  0.22255838  0.04961666  0.43376819    -0.03800
C490        C  0.23321538  0.05178335  0.46392179    -0.08200
C491        C  0.22743391  0.08107248  0.48319723     0.05300
C492        C  0.21300385  0.11057003  0.47119309    -0.03300
Br493      Br  0.20333098  0.15177772  0.49489074    -0.03000
H494        H  0.19051869  0.13103464  0.43262561     0.09200
H495        H  0.24431450  0.02874911  0.47267404     0.07200
Br496      Br  0.22905506  0.00587255  0.41084429    -0.03400
C497        C  0.22300080  0.06505445  0.19090362    -0.10000
C498        C  0.20837008  0.08904963  0.17206273     0.06200
C499        C  0.20882429  0.12803777  0.18308907    -0.03800
C500        C  0.21897218  0.13932340  0.21292613    -0.08200
C501        C  0.22996375  0.11315445  0.23256217     0.05300
C502        C  0.23484933  0.07735733  0.22057845    -0.03300
Br503      Br  0.25750372  0.04393982  0.24299160    -0.03000
H504        H  0.22523527  0.03632206  0.18245271     0.09200
H505        H  0.21657755  0.16815153  0.22098689     0.07200
Br506      Br  0.19274607  0.16550174  0.15934751    -0.03400
C507        C  0.07154347  0.16662839  0.31071230    -0.10000
C508        C  0.07667768  0.13294280  0.29612972     0.06200
C509        C  0.03715340  0.09170040  0.28922980    -0.03800
C510        C  0.99597496  0.08042866  0.30298149    -0.08200
C511        C  0.99242256  0.11172561  0.32115900     0.05300
C512        C  0.02908319  0.15661794  0.32228956    -0.03300
Br513      Br  0.02298699  0.20454106  0.34000163    -0.03000
H514        H  0.10103021  0.19926051  0.31536713     0.09200
H515        H  0.96658595  0.04728053  0.29930694     0.07200
Br516      Br  0.03886242  0.04858340  0.26277553    -0.03400
C517        C  0.11089940  0.77714221  0.42010162    -0.10000
C518        C  0.14953899  0.81872435  0.41099886     0.06200
C519        C  0.14309316  0.84223876  0.38713317    -0.03800
C520        C  0.10040906  0.82432176  0.37285730    -0.08200
C521        C  0.06244744  0.78223683  0.38129603     0.05300
C522        C  0.06816660  0.75909096  0.40563954    -0.03300
Br523      Br  0.01796021  0.70421444  0.42094885    -0.03000
H524        H  0.11397349  0.75764836  0.43832008     0.09200
H525        H  0.09670106  0.84397890  0.35499072     0.07200
Br526      Br  0.19126667  0.89939585  0.37335924    -0.03400
C527        C  0.14425120  0.81633875  0.11805072    -0.10000
C528        C  0.12956591  0.80476069  0.14758706     0.06200
C529        C  0.13826841  0.84158952  0.16642664    -0.03800
C530        C  0.16113876  0.88718385  0.15596155    -0.08200
C531        C  0.17927165  0.89890213  0.12715204     0.05300
C532        C  0.17099962  0.86219111  0.10845078    -0.03300
Br533      Br  0.19355194  0.87241060  0.06873879    -0.03000
H534        H  0.13763822  0.78963023  0.10261198     0.09200
H535        H  0.16429682  0.91385300  0.17047180     0.07200
Br536      Br  0.11900099  0.83157128  0.20702478    -0.03400
C537        C  0.23302918  0.80998591  0.27498105    -0.10000
C538        C  0.19864655  0.76719764  0.26593533     0.06200
C539        C  0.16586498  0.73839227  0.28702220    -0.03800
C540        C  0.17115905  0.75040889  0.31691084    -0.08200
C541        C  0.20868299  0.79090493  0.32646934     0.05300
C542        C  0.23821956  0.82213870  0.30481136    -0.03300
Br543      Br  0.28727538  0.88165237  0.31422029    -0.03000
H544        H  0.25757529  0.83321502  0.25905859     0.09200
H545        H  0.14736302  0.72656045  0.33291925     0.07200
Br546      Br  0.11328543  0.68181113  0.27669929    -0.03400
C547        C  0.17116602  0.72968322  0.02334677    -0.10000
C548        C  0.21657667  0.74542175  0.01467565     0.06200
C549        C  0.25078365  0.76236093  0.03707444    -0.03800
C550        C  0.23917282  0.76420205  0.06654907    -0.08200
C551        C  0.19389149  0.74761413  0.07496699     0.05300
C552        C  0.15965051  0.72958856  0.05310552    -0.03300
Br553      Br  0.09626250  0.70232423  0.06308737    -0.03000
H554        H  0.14414454  0.71632240  0.00703746     0.09200
H555        H  0.26543237  0.77578667  0.08339255     0.07200
Br556      Br  0.31383932  0.78071228  0.03043352    -0.03400
C557        C  0.15714176  0.54625990  0.15170446    -0.10000
C558        C  0.19277929  0.58983914  0.14461403     0.06200
C559        C  0.23747655  0.59686182  0.14233606    -0.03800
C560        C  0.24694105  0.56316430  0.15212879    -0.08200
C561        C  0.21183436  0.52125309  0.16198976     0.05300
C562        C  0.16637102  0.51177329  0.16016088    -0.03300
Br563      Br  0.11635013  0.45418603  0.17218071    -0.03000
H564        H  0.12259105  0.54004407  0.15346272     0.09200
H565        H  0.28175257  0.56966822  0.15212568     0.07200
Br566      Br  0.28677403  0.65196665  0.12669122    -0.03400
C567        C  0.07446022  0.26624034  0.14336443    -0.10000
C568        C  0.06577955  0.22692098  0.12841413     0.06200
C569        C  0.10238382  0.21669502  0.12773792    -0.03800
C570        C  0.14637916  0.24730389  0.13884626    -0.08200
C571        C  0.15476617  0.28618422  0.15447022     0.05300
C572        C  0.11659700  0.29392561  0.15748881    -0.03300
Br573      Br  0.11611712  0.34011898  0.18137926    -0.03000
H574        H  0.04713568  0.27416001  0.14564375     0.09200
H575        H  0.17358055  0.23925835  0.13666833     0.07200
Br576      Br  0.09492940  0.15978710  0.11467036    -0.03400
C577        C  0.12616566  0.21108561  0.38730201    -0.10000
C578        C  0.17210433  0.22558496  0.37902642     0.06200
C579        C  0.20473208  0.27052726  0.38629295    -0.03800
C580        C  0.19117672  0.29921476  0.40014466    -0.08200
C581        C  0.14491353  0.28588367  0.40598628     0.05300
C582        C  0.11282618  0.24030575  0.40077060    -0.03300
Br583      Br  0.05224812  0.21498005  0.41573784    -0.03000
H584        H  0.09988152  0.17636690  0.38349165     0.09200
H585        H  0.21765938  0.33276677  0.40629322     0.07200
Br586      Br  0.26840035  0.29527934  0.37832796    -0.03400
C587        C  0.25236379  0.38862098  0.05762040    -0.10000
C588        C  0.22224849  0.39215483  0.07752219     0.06200
C589        C  0.18723298  0.39912357  0.06616588    -0.03800
C590        C  0.18591138  0.40712142  0.03591679    -0.08200
C591        C  0.21847810  0.40767622  0.01621201     0.05300
C592        C  0.25052058  0.39573887  0.02719013    -0.03300
Br593      Br  0.29421986  0.39091935  0.00265468    -0.03000
H594        H  0.27874110  0.38187540  0.06594421     0.09200
H595        H  0.15962933  0.41423745  0.02790757     0.07200
Br596      Br  0.14244814  0.40191212  0.09070649    -0.03400
C597        C  0.17136942  0.40355750  0.27578372    -0.10000
C598        C  0.21108007  0.40326770  0.26746251     0.06200
C599        C  0.23544113  0.39302917  0.28902026    -0.03800
C600        C  0.22231300  0.38780748  0.31866586    -0.08200
C601        C  0.18479369  0.39206522  0.32742221     0.05300
C602        C  0.15789248  0.39797194  0.30531630    -0.03300
Br603      Br  0.10247227  0.39932737  0.31306539    -0.03000
H604        H  0.15156710  0.41002927  0.25937744     0.09200
H605        H  0.24257805  0.38193453  0.33503012     0.07200
Br606      Br  0.28612816  0.38445201  0.27959118    -0.03400
C607        C  0.13644295  0.55517343  0.39510879    -0.10000
C608        C  0.16852864  0.54529270  0.38266219     0.06200
C609        C  0.20885694  0.58095221  0.37062279    -0.03800
C610        C  0.22134830  0.62576617  0.37736397    -0.08200
C611        C  0.19226031  0.63502472  0.39421424     0.05300
C612        C  0.14790355  0.60006964  0.40066479    -0.03300
Br613      Br  0.10440148  0.61112914  0.42086120    -0.03000
H614        H  0.10506518  0.52828085  0.40413819     0.09200
H615        H  0.25446578  0.65306967  0.37065753     0.07200
Br616      Br  0.24955481  0.56916763  0.34771430    -0.03400
C617        C  0.46482134  0.83090446  0.38927537    -0.10000
C618        C  0.45793180  0.78726787  0.38367990     0.06200
C619        C  0.42017208  0.75745392  0.36662171    -0.03800
C620        C  0.38472436  0.76680003  0.36191742    -0.08200
C621        C  0.38721991  0.80630762  0.37342958     0.05300
C622        C  0.42996253  0.84119241  0.38337405    -0.03300
Br623      Br  0.44114729  0.90120328  0.39254407    -0.03000
H624        H  0.49536763  0.85546782  0.40057029     0.09200
H625        H  0.35326531  0.74086442  0.35222160     0.07200
Br626      Br  0.41470519  0.70313401  0.35010258    -0.03400
C627        C  0.68150886  0.85598694  0.42243892    -0.10000
C628        C  0.67893266  0.81716716  0.40851472     0.06200
C629        C  0.70365161  0.82533902  0.38186067    -0.03800
C630        C  0.72913423  0.87013281  0.37019291    -0.08200
C631        C  0.73074074  0.90833698  0.38395875     0.05300
C632        C  0.70637923  0.90047327  0.41041156    -0.03300
Br633      Br  0.70654835  0.94979044  0.43099097    -0.03000
H634        H  0.66283436  0.85181362  0.44268242     0.09200
H635        H  0.74794210  0.87512923  0.34994286     0.07200
Br636      Br  0.70391721  0.77715299  0.36003001    -0.03400
C637        C  0.38278879  0.60205046  0.39703199    -0.10000
C638        C  0.41647171  0.59110663  0.38864026     0.06200
C639        C  0.40506581  0.54497103  0.38827157    -0.03800
C640        C  0.36090463  0.51137508  0.39650694    -0.08200
C641        C  0.32906734  0.52348557  0.40709495     0.05300
C642        C  0.34056234  0.56947278  0.40719308    -0.03300
Br643      Br  0.30209108  0.59172733  0.42244640    -0.03000
H644        H  0.39019729  0.63697387  0.39841689     0.09200
H645        H  0.35236440  0.47596806  0.39638265     0.07200
Br646      Br  0.44871859  0.52628129  0.37886540    -0.03400
C647        C  0.43524072  0.55676501  0.15406992    -0.10000
C648        C  0.39429089  0.54602627  0.13957364     0.06200
C649        C  0.38804784  0.58176832  0.12841065    -0.03800
C650        C  0.41756143  0.62651024  0.13697738    -0.08200
C651        C  0.45553895  0.63644414  0.15468004     0.05300
C652        C  0.46656339  0.60194361  0.16080420    -0.03300
Br653      Br  0.52250020  0.61454003  0.17986519    -0.03000
H654        H  0.44102317  0.53008026  0.16270925     0.09200
H655        H  0.41076387  0.65344488  0.12994714     0.07200
Br656      Br  0.33741905  0.56956665  0.10313672    -0.03400
C657        C  0.68022033  0.81706908  0.11533507    -0.10000
C658        C  0.68443529  0.83305840  0.14445010     0.06200
C659        C  0.71409909  0.82655218  0.16367742    -0.03800
C660        C  0.73699007  0.80355089  0.15420068    -0.08200
C661        C  0.72981592  0.78430533  0.12589725     0.05300
C662        C  0.70050415  0.79113245  0.10652409    -0.03300
Br663      Br  0.68882757  0.76792378  0.06707184    -0.03000
H664        H  0.65919001  0.82272539  0.09957872     0.09200
H665        H  0.76130217  0.80131013  0.16897733     0.07200
Br666      Br  0.72545554  0.84984530  0.20312914    -0.03400
C667        C  0.57584892  0.79301329  0.27934850    -0.10000
C668        C  0.57157216  0.75785660  0.26087212     0.06200
C669        C  0.57875172  0.72338947  0.27335058    -0.03800
C670        C  0.58560729  0.72258880  0.30398072    -0.08200
C671        C  0.58544049  0.75556343  0.32285821     0.05300
C672        C  0.58253222  0.79222777  0.30989139    -0.03300
Br673      Br  0.58225787  0.83972134  0.33256183    -0.03000
H674        H  0.57185781  0.82056157  0.27006824     0.09200
H675        H  0.58857559  0.69441113  0.31330720     0.07200
Br676      Br  0.57506146  0.67410883  0.25068635    -0.03400
C677        C  0.56453698  0.80478110  0.01868458    -0.10000
C678        C  0.54559924  0.75975111  0.00901589     0.06200
C679        C  0.53902813  0.72538673  0.03015428    -0.03800
C680        C  0.54881281  0.73620246  0.06005975    -0.08200
C681        C  0.56464795  0.78055393  0.06977192     0.05300
C682        C  0.57365872  0.81528380  0.04868290    -0.03300
Br683      Br  0.59861145  0.87785493  0.05960586    -0.03000
H684        H  0.57123774  0.83189475  0.00298215     0.09200
H685        H  0.54191465  0.70933236  0.07602996     0.07200
Br686      Br  0.47468903  0.66090702  0.52259233    -0.03400
C687        C  0.40911197  0.82027201  0.17402154    -0.10000
C688        C  0.41701586  0.80294911  0.14803062     0.06200
C689        C  0.38106199  0.77820993  0.12848820    -0.03800
C690        C  0.33722145  0.76868697  0.13618603    -0.08200
C691        C  0.32916867  0.78219473  0.16369904     0.05300
C692        C  0.36552200  0.81048183  0.18183772    -0.03300
Br693      Br  0.35712600  0.83600629  0.21734800    -0.03000
H694        H  0.43584678  0.83804538  0.18972251     0.09200
H695        H  0.30906658  0.74871187  0.12146735     0.07200
Br696      Br  0.39033633  0.75453901  0.09248604    -0.03400
C697        C  0.81277525  0.61678417  0.03758645    -0.10000
C698        C  0.80361056  0.61683247  0.06796652     0.06200
C699        C  0.81682335  0.59131865  0.08691420    -0.03800
C700        C  0.83840748  0.56767993  0.07561155    -0.08200
C701        C  0.85080196  0.57080438  0.04560320     0.05300
C702        C  0.83798234  0.59662438  0.02678550    -0.03300
Br703      Br  0.85810426  0.61074717  0.48709377    -0.03000
H704        H  0.80298349  0.63522096  0.02216411     0.09200
H705        H  0.84541019  0.54642916  0.09048056     0.07200
Br706      Br  0.80504067  0.58640642  0.12865306    -0.03400
C707        C  0.07161547  0.46867392  0.49479414    -0.10000
C708        C  0.06563382  0.45175801  0.46580180     0.06200
C709        C  0.03871490  0.46190864  0.44636806    -0.03800
C710        C  0.01901719  0.48806351  0.45581611    -0.08200
C711        C  0.02088480  0.50068628  0.48557877     0.05300
C712        C  0.04866063  0.49145049  0.50489789    -0.03300
Br713      Br  0.05116466  0.49965183  0.04763658    -0.03000
H714        H  0.09467466  0.46447351  0.50966506     0.09200
H715        H  0.99944551  0.49577320  0.44004511     0.07200
Br716      Br  0.02684734  0.43989735  0.40660605    -0.03400
C717        C  0.85169204  0.18268697  0.32662571    -0.10000
C718        C  0.80567765  0.14816573  0.32237030     0.06200
C719        C  0.77792240  0.15962236  0.30519824    -0.03800
C720        C  0.79626909  0.20330953  0.29197979    -0.08200
C721        C  0.84285306  0.23699966  0.29514832     0.05300
C722        C  0.87035755  0.22589689  0.31293923    -0.03300
Br723      Br  0.93293614  0.26899113  0.32060020    -0.03000
H724        H  0.87418746  0.17596616  0.34034364     0.09200
H725        H  0.77354417  0.21111384  0.27930544     0.07200
Br726      Br  0.71408171  0.11838222  0.30203250    -0.03400
C727        C  0.02416260  0.48425591  0.20212638    -0.10000
C728        C  0.02514032  0.47228211  0.23208913     0.06200
C729        C  0.05282452  0.50837928  0.25128534    -0.03800
C730        C  0.07532411  0.55412733  0.24122506    -0.08200
C731        C  0.07018411  0.56639262  0.21208248     0.05300
C732        C  0.04467813  0.53028772  0.19239369    -0.03300
Br733      Br  0.03685289  0.54189646  0.15172705    -0.03000
H734        H  0.00481756  0.45791752  0.18639460     0.09200
H735        H  0.09727578  0.58047136  0.25640565     0.07200
Br736      Br  0.06187377  0.49659904  0.29172298    -0.03400
C737        C  0.89993580  0.40793581  0.39859101    -0.10000
C738        C  0.91114990  0.45183643  0.40718598     0.06200
C739        C  0.92204972  0.48583419  0.38527349    -0.03800
C740        C  0.91686685  0.47435762  0.35531440    -0.08200
C741        C  0.90171384  0.42937009  0.34664350     0.05300
C742        C  0.89561503  0.39650995  0.36872970    -0.03300
Br743      Br  0.88223950  0.33549972  0.36021630    -0.03000
H744        H  0.89293494  0.38187068  0.41522731     0.09200
H745        H  0.92350788  0.50050577  0.33883546     0.07200
Br746      Br  0.94582424  0.54868529  0.39505381    -0.03400
C747        C  0.87758580  0.43475365  0.14878552    -0.10000
C748        C  0.90828556  0.41997616  0.15669556     0.06200
C749        C  0.92634992  0.40431114  0.13470023    -0.03800
C750        C  0.91401083  0.40425496  0.10509733    -0.08200
C751        C  0.88193853  0.41766034  0.09698519     0.05300
C752        C  0.86329978  0.43272574  0.11954041    -0.03300
Br753      Br  0.81542628  0.44763422  0.11364640    -0.03000
H754        H  0.86188399  0.44462484  0.16586743     0.09200
H755        H  0.92886506  0.39266917  0.08850493     0.07200
Br756      Br  0.96623178  0.38051087  0.14433925    -0.03400
C757        C  0.73974663  0.56314747  0.32930753    -0.10000
C758        C  0.72942496  0.56859592  0.29978879     0.06200
C759        C  0.76668517  0.59504057  0.28077784    -0.03800
C760        C  0.81200070  0.61347502  0.29088946    -0.08200
C761        C  0.82224248  0.61154403  0.32091455     0.05300
C762        C  0.78494266  0.58545569  0.34008416    -0.03300
Br763      Br  0.79408902  0.57900201  0.38145750    -0.03000
H764        H  0.71239386  0.54108288  0.34411495     0.09200
H765        H  0.83936744  0.63247111  0.27539820     0.07200
Br766      Br  0.75806056  0.60700583  0.24038446    -0.03400
C767        C  0.48379023  0.48292243  0.20607537    -0.10000
C768        C  0.49295835  0.49156454  0.23644081     0.06200
C769        C  0.45510811  0.47506620  0.25578572    -0.03800
C770        C  0.41032865  0.45059449  0.24483317    -0.08200
C771        C  0.40124555  0.43961391  0.21475479     0.05300
C772        C  0.43904203  0.45573477  0.19547872    -0.03300
Br773      Br  0.43162747  0.44140225  0.15422703    -0.03000
H774        H  0.51170734  0.49483320  0.19057757     0.09200
H775        H  0.38227205  0.44144131  0.25987279     0.07200
Br776      Br  0.46240192  0.48644198  0.29752681    -0.03400
C777        C  0.76320110  0.49504382  0.25372553    -0.10000
C778        C  0.73772802  0.48027151  0.22758591     0.06200
C779        C  0.75031461  0.45969426  0.20565967    -0.03800
C780        C  0.78458747  0.44894301  0.21181941    -0.08200
C781        C  0.80513167  0.45798902  0.23986250     0.05300
C782        C  0.79643712  0.48349551  0.26021735    -0.03300
Br783      Br  0.82610595  0.49967566  0.29806417    -0.03000
H784        H  0.75401797  0.51099202  0.27071313     0.09200
H785        H  0.79266464  0.43054027  0.19570016     0.07200
Br786      Br  0.71965218  0.44362789  0.16826672    -0.03400
C787        C  0.38042983  0.15875138  0.06133330    -0.10000
C788        C  0.33547454  0.14790062  0.06706943     0.06200
C789        C  0.32496101  0.18414350  0.06318977    -0.03800
C790        C  0.35693935  0.22686727  0.05129866    -0.08200
C791        C  0.40180790  0.23777027  0.04554251     0.05300
C792        C  0.41370589  0.20312908  0.05227425    -0.03300
Br793      Br  0.47525012  0.21366429  0.05252334    -0.03000
H794        H  0.39044554  0.13320728  0.06549946     0.09200
H795        H  0.34685582  0.25244903  0.04742766     0.07200
Br796      Br  0.26876143  0.18110345  0.07451608    -0.03400
C797        C  0.67597209  0.43018216  0.95929458    -0.10000
C798        C  0.66531621  0.44210430  0.98648368     0.06200
C799        C  0.70245269  0.48832726  0.49757141    -0.03800
C800        C  0.74694299  0.50075953  0.48963969    -0.08200
C801        C  0.75569705  0.47371593  0.47037789     0.05300
C802        C  0.71925067  0.43740968  0.45590046    -0.03300
Br803      Br  0.73503571  0.42451440  0.91614012    -0.03000
H804        H  0.64904118  0.40684503  0.94487870     0.09200
H805        H  0.77434888  0.52781056  0.50148220     0.07200
Br806      Br  0.69289699  0.52310458  0.52709940    -0.03400
C807        C  0.53428613  0.57374911  0.48267036    -0.10000
C808        C  0.50116776  0.58153195  0.46942188     0.06200
C809        C  0.45501197  0.54533658  0.47173604    -0.03800
C810        C  0.44460402  0.50139698  0.48198423    -0.08200
C811        C  0.47818146  0.49320408  0.49430744     0.05300
C812        C  0.52309580  0.53185047  0.49649883    -0.03300
Br813      Br  0.57669776  0.52651908  0.01292311    -0.03000
H814        H  0.56924465  0.60112446  0.48316092     0.09200
H815        H  0.40961095  0.47409672  0.48175597     0.07200
Br816      Br  0.40334029  0.55361920  0.46519259    -0.03400
C817        C  0.56894067  0.46366795  0.10689471    -0.10000
C818        C  0.55109990  0.41809442  0.09829350     0.06200
C819        C  0.53420909  0.38393070  0.12102444    -0.03800
C820        C  0.53675316  0.39602227  0.15085731    -0.08200
C821        C  0.55622185  0.44153090  0.15919226     0.05300
C822        C  0.57175709  0.47543915  0.13684274    -0.03300
Br823      Br  0.59649549  0.53849842  0.14624522    -0.03000
H824        H  0.58114122  0.49051091  0.09029555     0.09200
H825        H  0.52540630  0.36970014  0.16782679     0.07200
Br826      Br  0.50868463  0.31979593  0.11416244    -0.03400
C827        C  0.56931893  0.43625365  0.40315627    -0.10000
C828        C  0.52678254  0.43143207  0.41011273     0.06200
C829        C  0.49492313  0.42187564  0.38720080    -0.03800
C830        C  0.50621187  0.41820190  0.35789675    -0.08200
C831        C  0.54855119  0.42177158  0.35078570     0.05300
C832        C  0.58011546  0.43049404  0.37423485    -0.03300
Br833      Br  0.63704200  0.43087425  0.36987105    -0.03000
H834        H  0.59303253  0.44075107  0.42084210     0.09200
H835        H  0.48124909  0.41162398  0.34071584     0.07200
Br836      Br  0.43465183  0.41119083  0.39537671    -0.03400
C837        C  0.38170078  0.18095320  0.30955928    -0.10000
C838        C  0.33731094  0.14676638  0.31625986     0.06200
C839        C  0.32869420  0.10078640  0.31369382    -0.03800
C840        C  0.36088161  0.09054488  0.30138374    -0.08200
C841        C  0.40503589  0.12443564  0.29461706     0.05300
C842        C  0.41580072  0.17039243  0.30075907    -0.03300
Br843      Br  0.47668537  0.22125803  0.30025520    -0.03000
H844        H  0.39078112  0.21613381  0.31291713     0.09200
H845        H  0.35182481  0.05527437  0.29843796     0.07200
Br846      Br  0.27571942  0.04820556  0.32839825    -0.03400
C847        C  0.74468634  0.21437575  0.21831611    -0.10000
C848        C  0.75157380  0.25882352  0.21562049     0.06200
C849        C  0.71330340  0.26507752  0.21389584    -0.03800
C850        C  0.67090322  0.22989154  0.22266186    -0.08200
C851        C  0.66527994  0.18696759  0.23000232     0.05300
C852        C  0.70123649  0.17799743  0.22442320    -0.03300
Br853      Br  0.69390132  0.11798296  0.22630147    -0.03000
H854        H  0.77340462  0.20831564  0.21804583     0.09200
H855        H  0.64234900  0.23613962  0.22395077     0.07200
Br856      Br  0.71803219  0.32134350  0.20036895    -0.03400
C857        C  0.50014090  0.93865490  0.24995970    -0.10000
C858        C  0.47709906  0.95437209  0.23086459     0.06200
C859        C  0.47629086  0.94430442  0.20042848    -0.03800
C860        C  0.49989542  0.92204726  0.19007284    -0.08200
C861        C  0.52284685  0.90666320  0.20940660     0.05300
C862        C  0.52207375  0.91507566  0.23968088    -0.03300
Br863      Br  0.55189153  0.89596991  0.26795447    -0.03000
H864        H  0.50221073  0.94577019  0.27338147     0.09200
H865        H  0.49766339  0.91395876  0.16681805     0.07200
Br866      Br  0.44185927  0.95759621  0.17197567    -0.03400
C867        C  0.55442352  0.25513288  0.20671124    -0.10000
C868        C  0.51046079  0.21918067  0.21231913     0.06200
C869        C  0.47672246  0.22939185  0.22167222    -0.03800
C870        C  0.49007290  0.27297450  0.23219544    -0.08200
C871        C  0.53640705  0.30604471  0.23300641     0.05300
C872        C  0.56790449  0.29800379  0.21782262    -0.03300
Br873      Br  0.62979084  0.34351746  0.21200645    -0.03000
H874        H  0.58014984  0.24838037  0.19760824     0.09200
H875        H  0.46468072  0.28005849  0.24145011     0.07200
Br876      Br  0.41328179  0.18463160  0.22332002    -0.03400
C877        C  0.76819744  0.18024511  0.04100609    -0.10000
C878        C  0.73133608  0.13531490  0.04582551     0.06200
C879        C  0.73986790  0.10718753  0.06500538    -0.03800
C880        C  0.78332988  0.12322201  0.07796378    -0.08200
C881        C  0.82105017  0.16709752  0.07177714     0.05300
C882        C  0.81248948  0.19563130  0.05291327    -0.03300
Br883      Br  0.85948692  0.25629378  0.04372605    -0.03000
H884        H  0.76279663  0.20380091  0.02743499     0.09200
H885        H  0.78774927  0.09998453  0.09256104     0.07200
Br886      Br  0.69283638  0.04728330  0.07571759    -0.03400
C887        C  0.55437659  0.22772802  0.46155834    -0.10000
C888        C  0.52399820  0.18604326  0.97412372     0.06200
C889        C  0.47894698  0.17719451  0.97806875    -0.03800
C890        C  0.46780935  0.21094479  0.97053229    -0.08200
C891        C  0.50198870  0.25746115  0.46113107     0.05300
C892        C  0.54343088  0.26069934  0.45220497    -0.03300
Br893      Br  0.58685791  0.31103680  0.42891700    -0.03000
H894        H  0.58791435  0.23241448  0.45700543     0.09200
H895        H  0.43526130  0.20669790  0.97755789     0.07200
Br896      Br  0.43350372  0.12244935  0.99691467    -0.03400
C897        C  0.40044344  0.93083899  0.47767867    -0.10000
C898        C  0.39410308  0.88978491  0.46665043     0.06200
C899        C  0.43186002  0.88142239  0.46949075    -0.03800
C900        C  0.47507983  0.91567170  0.47952945    -0.08200
C901        C  0.48162505  0.95733738  0.49005478     0.05300
C902        C  0.44202103  0.96303823  0.49034865    -0.03300
Br903      Br  0.43900313  0.01301064  0.50771206    -0.03000
H904        H  0.37221791  0.93769332  0.47706803     0.09200
H905        H  0.50334985  0.90890263  0.48015902     0.07200
Br906      Br  0.42777853  0.82365566  0.46166802    -0.03400
C907        C  0.49428181  0.07795791  0.13387948    -0.10000
C908        C  0.52428992  0.07142128  0.15271778     0.06200
C909        C  0.56388132  0.07430729  0.14035353    -0.03800
C910        C  0.57376636  0.08607640  0.11036059    -0.08200
C911        C  0.54457895  0.09454131  0.09208733     0.05300
C912        C  0.50406548  0.08954916  0.10407807    -0.03300
Br913      Br  0.46254463  0.10189515  0.08180853    -0.03000
H914        H  0.46335359  0.07563734  0.14259816     0.09200
H915        H  0.60465630  0.08875957  0.10124796     0.07200
Br916      Br  0.60670380  0.06472736  0.16313545    -0.03400
C917        C  0.56804620  0.04524687  0.38630103    -0.10000
C918        C  0.54146038  0.05558551  0.40525101     0.06200
C919        C  0.51163874  0.06902106  0.39261617    -0.03800
C920        C  0.51327139  0.07752248  0.36216778    -0.08200
C921        C  0.54325701  0.07165251  0.34337317     0.05300
C922        C  0.56834867  0.05200499  0.35558903    -0.03300
Br923      Br  0.60457471  0.03476270  0.33230041    -0.03000
H924        H  0.59016906  0.03344354  0.39561882     0.09200
H925        H  0.49150550  0.09005546  0.35329019     0.07200
Br926      Br  0.47071999  0.08013572  0.41577058    -0.03400
C927        C  0.70663009  0.25534762  0.95902730    -0.10000
C928        C  0.70992666  0.22468995  0.46684269     0.06200
C929        C  0.75590861  0.23519436  0.46655187    -0.03800
C930        C  0.78993581  0.27845083  0.47584013    -0.08200
C931        C  0.77897565  0.30525984  0.98189152     0.05300
C932        C  0.73592764  0.29666849  0.97189943    -0.03300
Br933      Br  0.71230645  0.33743622  0.97740538    -0.03000
H934        H  0.67336151  0.24971153  0.95222411     0.09200
H935        H  0.82518602  0.28625858  0.47578618     0.07200
Br936      Br  0.77396472  0.19236653  0.45395244    -0.03400
O937        O  0.59464357  0.12859696  0.55553953    -0.86200
O938        O  0.67235665  0.15178281  0.52599447    -0.83300
C939        C  0.67999798  0.11909958  0.53107200     0.97300
O940        O  0.65174671  0.07940890  0.52124249    -0.83300
O941        O  0.56897681  0.00720820  0.98966470    -0.85900
C942        C  0.53153410  0.99411625  0.00377953     1.01800
O943        O  0.53213686  0.02158750  0.02169935    -0.78700
O944        O  0.52310481  0.09012803  0.54139519    -0.78900
C945        C  0.55323377  0.10318490  0.56170033     1.01700
O946        O  0.56599287  0.17077321  0.51038122    -0.86200
O947        O  0.63349313  0.17567363  0.47555587    -0.83300
C948        C  0.67484324  0.17377635  0.96650411     0.97300
O949        O  0.67642431  0.13721287  0.97141782    -0.83300
O950        O  0.59746232  0.07408366  0.94477899    -0.85900
C951        C  0.55589140  0.05634655  0.93829500     1.01700
O952        O  0.52582878  0.04487957  0.95843447    -0.78700
O953        O  0.52136499  0.11946911  0.47944520    -0.78900
C954        C  0.53709305  0.15826746  0.48974899     1.01700
Cr955      Cr  0.61499377  0.15371480  0.51576391     1.93700
Cr956      Cr  0.62241072  0.07537844  0.98414084     1.93200
Cr957      Cr  0.53108842  0.07065912  0.99988810     1.39100
O958        O  0.58683459  0.10019299  0.49982323    -1.24000
O959        O  0.60324321  0.15332992  0.76711375    -0.86200
O960        O  0.54804229  0.17379977  0.73357980    -0.83300
C961        C  0.51418406  0.17617708  0.72404163     0.97300
O962        O  0.47520367  0.14039126  0.72439035    -0.83300
O963        O  0.49225906  0.08250337  0.69367022    -0.85900
C964        C  0.51335820  0.06251740  0.68575476     1.01800
O965        O  0.52658113  0.04318143  0.70490318    -0.78700
O966        O  0.59848239  0.10587278  0.73339602    -0.78900
C967        C  0.62041214  0.14339790  0.74571866     1.01700
O968        O  0.52918358  0.10718499  0.80788061    -0.86200
O969        O  0.48104552  0.14132668  0.77977468    -0.83300
C970        C  0.43969864  0.11079143  0.78096878     0.97300
O971        O  0.42769831  0.07235611  0.76863402    -0.83300
O972        O  0.44282761  0.00486676  0.72952789    -0.85900
C973        C  0.46156875  0.98594292  0.74446449     1.01700
O974        O  0.48503663  0.00839679  0.76541458    -0.78700
O975        O  0.56026516  0.06730006  0.79245355    -0.78900
C976        C  0.54382166  0.07993419  0.81325879     1.01700
Cr977      Cr  0.53899796  0.14079250  0.77074369     1.93700
Cr978      Cr  0.46206429  0.07482935  0.73110067     1.93200
Cr979      Cr  0.54075889  0.05754476  0.74928883     1.39100
O980        O  0.51401206  0.09101793  0.75036132    -1.24000
O981        O  0.53284839  0.37355203  0.55911062    -0.86200
O982        O  0.47691214  0.29796495  0.52895970    -0.83300
C983        C  0.43694592  0.29084903  0.53297409     0.97300
O984        O  0.42497577  0.31397349  0.02279235    -0.83300
O985        O  0.44414922  0.40444476  0.98943768    -0.85900
C986        C  0.46870300  0.44146424  0.00350898     1.01800
O987        O  0.49383277  0.43929545  0.02267768    -0.78700
O988        O  0.56596666  0.44568612  0.54638735    -0.78900
C989        C  0.54922195  0.41452074  0.56612602     1.01700
O990        O  0.60227461  0.39977418  0.51460160    -0.86200
O991        O  0.53891914  0.33038917  0.48042033    -0.83300
C992        C  0.50099103  0.29398321  0.96864961     0.97300
O993        O  0.46399817  0.29501065  0.97257717    -0.83300
O994        O  0.48324805  0.37498765  0.94667491    -0.85900
C995        C  0.50738029  0.41642240  0.94044402     1.01700
O996        O  0.52706796  0.44553449  0.96079320    -0.78700
O997        O  0.59811272  0.44956287  0.48551611    -0.78900
C998        C  0.61993598  0.43170032  0.49578418     1.01700
Cr999      Cr  0.53639981  0.35279930  0.51957457     1.93700
Cr1000     Cr  0.45704642  0.34929626  0.98507847     1.93200
Cr1001     Cr  0.54351300  0.43699908  0.00344463     1.39100
O1002       O  0.51138739  0.37745702  0.00252738    -1.24000
O1003       O  0.57931539  0.37204395  0.77386059    -0.86200
O1004       O  0.65506545  0.43402513  0.74345872    -0.83300
C1005       C  0.68713507  0.47039603  0.73328763     0.97300
O1006       O  0.68355636  0.50581379  0.73136225    -0.83300
O1007       O  0.60754970  0.47785350  0.69823495    -0.85900
C1008       C  0.56675039  0.45474106  0.69046937     1.01800
O1009       O  0.53482044  0.43916238  0.70953655    -0.78700
O1010       O  0.53172620  0.37226835  0.74110422    -0.78900
C1011       C  0.55100978  0.35290773  0.75324136     1.01700
O1012       O  0.59522734  0.44443399  0.81449776    -0.86200
O1013       O  0.67540748  0.49927820  0.78842672    -0.83300
C1014       C  0.68419479  0.54011451  0.78602201     0.97300
O1015       O  0.65731331  0.54995439  0.77119861    -0.83300
O1016       O  0.57294010  0.52463986  0.73022242    -0.85900
C1017       C  0.53568265  0.50565749  0.74469466     1.01700
O1018       O  0.53479581  0.48288840  0.76659466    -0.78700
O1019       O  0.52542548  0.41158638  0.79735799    -0.78900
C1020       C  0.55343864  0.42988645  0.81845774     1.01700
Cr1021     Cr  0.62386414  0.43853492  0.77851755     1.93700
Cr1022     Cr  0.62720977  0.51125744  0.73499703     1.93200
Cr1023     Cr  0.53547458  0.42870770  0.75400052     1.39100
O1024       O  0.59556570  0.45948193  0.75598798    -1.24000
O1025       O  0.81503491  0.40079272  0.77048010    -0.86200
O1026       O  0.79399029  0.32458573  0.73748617    -0.83300
C1027       C  0.79449345  0.29055923  0.72679125     0.97300
O1028       O  0.83094284  0.28800253  0.72770772    -0.83300
O1029       O  0.88595344  0.36182718  0.69636768    -0.85900
C1030       C  0.90588488  0.40243262  0.68807192     1.01800
O1031       O  0.92377310  0.43437889  0.70684075    -0.78700
O1032       O  0.86160217  0.44207017  0.73558868    -0.78900
C1033       C  0.82603682  0.42961989  0.74982676     1.01700
O1034       O  0.86178642  0.37280188  0.81058137    -0.86200
O1035       O  0.82950142  0.29270431  0.78304918    -0.83300
C1036       C  0.86009300  0.28147962  0.78392509     0.97300
O1037       O  0.89875196  0.30729882  0.77137850    -0.83300
O1038       O  0.96493699  0.39026415  0.73040772    -0.85900
C1039       C  0.98478660  0.42819905  0.74407657     1.01700
O1040       O  0.96365178  0.43093988  0.76548204    -0.78700
O1041       O  0.90195988  0.44327432  0.79426242    -0.78900
C1042       C  0.88837251  0.41414360  0.81543854     1.01700
Cr1043     Cr  0.82849750  0.34962051  0.77386225     1.93700
Cr1044     Cr  0.89545910  0.33966345  0.73373153     1.93200
Cr1045     Cr  0.91114180  0.43416203  0.75094561     1.39100
O1046       O  0.87865067  0.37453077  0.75308657    -1.24000
O1047       O  0.85775026  0.44531073  0.56025052    -0.86200
O1048       O  0.83203188  0.50065811  0.53277797    -0.83300
C1049       C  0.86526964  0.54073605  0.53352157     0.97300
O1050       O  0.90275378  0.55007895  0.52060652    -0.83300
O1051       O  0.96407173  0.52295050  0.98392709    -0.85900
C1052       C  0.98053672  0.50186867  0.99873271     1.01800
O1053       O  0.95600758  0.47600887  0.01868232    -0.78700
O1054       O  0.89109895  0.40780987  0.54417260    -0.78900
C1055       C  0.88113636  0.42619687  0.56504788     1.01700
O1056       O  0.80616574  0.37380972  0.51915674    -0.86200
O1057       O  0.79334975  0.43575176  0.48628642    -0.83300
C1058       C  0.79789427  0.47259708  0.97310450     0.97300
O1059       O  0.83634430  0.50799011  0.97554540    -0.83300
O1060       O  0.88933235  0.48163313  0.94581993    -0.85900
C1061       C  0.90633345  0.45721969  0.93907086     1.01700
O1062       O  0.91935537  0.43891409  0.95902516    -0.78700
O1063       O  0.85186249  0.37463667  0.48536412    -0.78900
C1064       C  0.81393107  0.35495059  0.49778123     1.01700
Cr1065     Cr  0.82583778  0.44015923  0.52314721     1.93700
Cr1066     Cr  0.89691561  0.51096183  0.98373128     1.93200
Cr1067     Cr  0.90184448  0.42455218  0.00249089     1.39100
O1068       O  0.87644225  0.46139276  0.50284609    -1.24000
O1069       O  0.52724063  0.77067567  0.72590980    -0.86200
O1070       O  0.49305038  0.82038764  0.69994571    -0.83300
C1071       C  0.52316986  0.86200020  0.69814001     0.97300
O1072       O  0.56030465  0.87341370  0.68414506    -0.83300
O1073       O  0.62279753  0.85654230  0.64247680    -0.85900
C1074       C  0.64499056  0.84067860  0.65671759     1.01800
O1075       O  0.62527620  0.81545987  0.67810146    -0.78700
O1076       O  0.56789437  0.74154904  0.70850578    -0.78900
C1077       C  0.55566837  0.75716718  0.72996621     1.01700
O1078       O  0.47703253  0.69590252  0.68631576    -0.86200
O1079       O  0.45466351  0.75172299  0.65462834    -0.83300
C1080       C  0.45189434  0.78614394  0.64718202     0.97300
O1081       O  0.48800165  0.82434224  0.64431122    -0.83300
O1082       O  0.54246575  0.80592539  0.60996997    -0.85900
C1083       C  0.56229481  0.78479309  0.60196309     1.01700
O1084       O  0.58217871  0.77159105  0.62053907    -0.78700
O1085       O  0.52350860  0.70166672  0.65126629    -0.78900
C1086       C  0.48746459  0.67862984  0.66519675     1.01700
Cr1087     Cr  0.49108681  0.76108295  0.69022931     1.93700
Cr1088     Cr  0.55357594  0.83714702  0.64723287     1.93200
Cr1089     Cr  0.57303709  0.75953705  0.66498160     1.39100
O1090       O  0.53951096  0.78609158  0.66771811    -1.24000
O1091       O  0.47056989  0.73663941  0.91955241    -0.86200
O1092       O  0.47097713  0.66972950  0.88863650    -0.83300
C1093       C  0.46633496  0.63128088  0.88534298     0.97300
O1094       O  0.50149955  0.62725913  0.88974193    -0.83300
O1095       O  0.56496026  0.70658997  0.86088549    -0.85900
C1096       C  0.58450211  0.74829268  0.85410772     1.01800
O1097       O  0.59807625  0.77875433  0.87402358    -0.78700
O1098       O  0.52946304  0.78693818  0.89503675    -0.78900
C1099       C  0.48792238  0.76847229  0.90071902     1.01700
O1100       O  0.50594981  0.70983085  0.96976635    -0.86200
O1101       O  0.48855893  0.63214182  0.94334807    -0.83300
C1102       C  0.51976699  0.62255300  0.94922850     0.97300
O1103       O  0.56026761  0.64934635  0.93949294    -0.83300
O1104       O  0.63334329  0.73299390  0.90366956    -0.85900
C1105       C  0.64797225  0.76936533  0.91866389     1.01700
O1106       O  0.62090536  0.76872962  0.93714540    -0.78700
O1107       O  0.55456140  0.78071388  0.95741821    -0.78900
C1108       C  0.53473985  0.74967963  0.97706308     1.01700
Cr1109     Cr  0.48709698  0.68867468  0.92934312     1.93700
Cr1110     Cr  0.56454620  0.68177293  0.90018365     1.93200
Cr1111     Cr  0.57426576  0.77540491  0.91617688     1.39100
O1112       O  0.54246144  0.71569511  0.91590610    -1.24000
O1113       O  0.26807787  0.49631017  0.93850885    -0.86200
O1114       O  0.20576372  0.50939488  0.90664756    -0.83300
C1115       C  0.16939931  0.50413410  0.89520091     0.97300
O1116       O  0.13286606  0.46605859  0.89741902    -0.83300
O1117       O  0.15537646  0.41234003  0.86745628    -0.85900
C1118       C  0.17881932  0.39503271  0.85949000     1.01800
O1119       O  0.19714738  0.38092616  0.87854822    -0.78700
O1120       O  0.26639467  0.45218703  0.90361118    -0.78900
C1121       C  0.28631471  0.48960497  0.91626938     1.01700
O1122       O  0.19756995  0.44493926  0.98044018    -0.86200
O1123       O  0.14123464  0.47061378  0.95364905    -0.83300
C1124       C  0.10125647  0.43710905  0.95506576     0.97300
O1125       O  0.09241824  0.39930817  0.94328372    -0.83300
O1126       O  0.11447519  0.33636299  0.90640063    -0.85900
C1127       C  0.13765655  0.32082208  0.91990316     1.01700
O1128       O  0.16446435  0.34533780  0.93914554    -0.78700
O1129       O  0.23666616  0.41357628  0.96399806    -0.78900
C1130       C  0.21778262  0.42251516  0.98523175     1.01700
Cr1131     Cr  0.20192197  0.47696355  0.94350103     1.93700
Cr1132     Cr  0.12689539  0.40391748  0.90570366     1.93200
Cr1133     Cr  0.21403094  0.39947406  0.92161038     1.39100
O1134       O  0.18066257  0.42647394  0.92370859    -1.24000
O1135       O  0.26633380  0.44498142  0.73059057    -0.86200
O1136       O  0.34358690  0.46516476  0.70183422    -0.83300
C1137       C  0.34965194  0.43110279  0.70217538     0.97300
O1138       O  0.31995567  0.39362163  0.69036308    -0.83300
O1139       O  0.23016546  0.33308318  0.65475683    -0.85900
C1140       C  0.19265736  0.31905511  0.66911556     1.01800
O1141       O  0.19383732  0.34369901  0.68949097    -0.78700
O1142       O  0.19551559  0.41492427  0.71549962    -0.78900
C1143       C  0.22446737  0.42337606  0.73609437     1.01700
O1144       O  0.24730806  0.49837192  0.68896791    -0.86200
O1145       O  0.31810143  0.50669710  0.65551191    -0.83300
C1146       C  0.34925307  0.50065523  0.64536212     0.97300
O1147       O  0.34498547  0.46094997  0.64576052    -0.83300
O1148       O  0.26516014  0.40999329  0.61652162    -0.85900
C1149       C  0.22398140  0.39356862  0.60967209     1.01700
O1150       O  0.19357592  0.38034739  0.62961711    -0.78700
O1151       O  0.20110241  0.45302581  0.65566259    -0.78900
C1152       C  0.21967814  0.49054394  0.66802990     1.01700
Cr1153     Cr  0.29143618  0.47527239  0.69288191     1.93700
Cr1154     Cr  0.28755421  0.39984268  0.65390392     1.93200
Cr1155     Cr  0.19987350  0.39953802  0.67287471     1.39100
O1156       O  0.25964235  0.42444451  0.67353667    -1.24000
O1157       O  0.17521510  0.71052397  0.73067746    -0.86200
O1158       O  0.13665124  0.62853225  0.70209252    -0.83300
C1159       C  0.09500062  0.61530070  0.69751842     0.97300
O1160       O  0.08380094  0.64070982  0.68209205    -0.83300
O1161       O  0.10525136  0.72658773  0.64201878    -0.85900
C1162       C  0.12026558  0.76413689  0.65596565     1.01800
O1163       O  0.14169566  0.76735819  0.67894666    -0.78700
O1164       O  0.21112218  0.78097636  0.71403606    -0.78900
C1165       C  0.19214960  0.75247103  0.73523215     1.01700
O1166       O  0.25768716  0.74018400  0.69846457    -0.86200
O1167       O  0.21343368  0.66473701  0.66415445    -0.83300
C1168       C  0.18367480  0.63278538  0.64909007     0.97300
O1169       O  0.14440613  0.62878771  0.64521880    -0.83300
O1170       O  0.16250710  0.70193176  0.61237816    -0.85900
C1171       C  0.18365059  0.74302211  0.60501828     1.01700
O1172       O  0.19470897  0.77403352  0.62426838    -0.78700
O1173       O  0.25916626  0.77977553  0.66003507    -0.78900
C1174       C  0.27923123  0.76627561  0.67718683     1.01700
Cr1175     Cr  0.19417056  0.68778410  0.69706422     1.93700
Cr1176     Cr  0.12625934  0.67737357  0.64798889     1.93200
Cr1177     Cr  0.19964680  0.77203543  0.66957636     1.39100
O1178       O  0.17301830  0.71225135  0.67151250    -1.24000
O1179       O  0.24522050  0.69821375  0.92638079    -0.86200
O1180       O  0.31660663  0.76564404  0.89527013    -0.83300
C1181       C  0.34781356  0.80380869  0.88629301     0.97300
O1182       O  0.34554779  0.83942687  0.89169293    -0.83300
O1183       O  0.26536761  0.82096827  0.86468293    -0.85900
C1184       C  0.22373846  0.79682339  0.85846779     1.01800
O1185       O  0.19425342  0.77632779  0.87875032    -0.78700
O1186       O  0.19216511  0.70350311  0.90166579    -0.78900
C1187       C  0.21155653  0.68161472  0.90906240     1.01700
O1188       O  0.26805290  0.76105339  0.97469544    -0.86200
O1189       O  0.34554723  0.82105590  0.94668991    -0.83300
C1190       C  0.35247254  0.86046914  0.95226654     0.97300
O1191       O  0.32348324  0.87223171  0.94285513    -0.83300
O1192       O  0.23765373  0.85933257  0.90819525    -0.85900
C1193       C  0.19996231  0.83459825  0.92130833     1.01700
O1194       O  0.20125959  0.80905996  0.94065573    -0.78700
O1195       O  0.19615545  0.73379469  0.96294974    -0.78900
C1196       C  0.22738204  0.74632095  0.98244690     1.01700
Cr1197     Cr  0.29114629  0.76297551  0.93460616     1.93700
Cr1198     Cr  0.29043658  0.84425185  0.90398686     1.93200
Cr1199     Cr  0.19993256  0.75790492  0.92116581     1.39100
O1200       O  0.26026720  0.78803230  0.91976683    -1.24000
O1201       O  0.16986882  0.09156515  0.88580451    -0.86200
O1202       O  0.15081429  0.15246530  0.86001198    -0.83300
C1203       C  0.18477462  0.19129603  0.86463590     0.97300
O1204       O  0.22369613  0.20087378  0.85361999    -0.83300
O1205       O  0.28991832  0.18161382  0.81541112    -0.85900
C1206       C  0.30332908  0.15663036  0.82901537     1.01800
O1207       O  0.27679299  0.13026924  0.84775695    -0.78700
O1208       O  0.20636219  0.05724480  0.86991618    -0.78900
C1209       C  0.19400688  0.07334842  0.89107689     1.01700
O1210       O  0.12305744  0.02725820  0.83902027    -0.86200
O1211       O  0.11782810  0.09547318  0.80917708    -0.83300
C1212       C  0.12323053  0.13370830  0.80142646     0.97300
O1213       O  0.16179137  0.16921851  0.80526568    -0.83300
O1214       O  0.21696263  0.14735752  0.77442396    -0.85900
C1215       C  0.23128175  0.12130967  0.76600161     1.01700
O1216       O  0.24542196  0.10270212  0.78501946    -0.78700
O1217       O  0.17413422  0.03304792  0.80769952    -0.78900
C1218       C  0.13506916  0.01133791  0.81795374     1.01700
Cr1219     Cr  0.14392486  0.09294819  0.84726891     1.93700
Cr1220     Cr  0.22262823  0.17171900  0.81407668     1.93200
Cr1221     Cr  0.22414249  0.08305755  0.82798051     1.39100
O1222       O  0.19709996  0.11604906  0.82995997    -1.24000
O1223       O  0.12021743  0.05178222  0.59213092    -0.86200
O1224       O  0.11576656  0.98049253  0.56079880    -0.83300
C1225       C  0.12347971  0.95002929  0.55143722     0.97300
O1226       O  0.16322067  0.95468778  0.55349913    -0.83300
O1227       O  0.21464964  0.03259733  0.52348784    -0.85900
C1228       C  0.22797877  0.07286017  0.51553265     1.01800
O1229       O  0.24056422  0.10410994  0.53469305    -0.78700
O1230       O  0.16702993  0.09733739  0.55884134    -0.78900
C1231       C  0.12892674  0.07918399  0.57066010     1.01700
O1232       O  0.17255337  0.03471859  0.63654728    -0.86200
O1233       O  0.15416332  0.95608877  0.60959115    -0.83300
C1234       C  0.18844363  0.95025291  0.61115239     0.97300
O1235       O  0.22665095  0.98043717  0.59997015    -0.83300
O1236       O  0.28866435  0.07011319  0.56375019    -0.85900
C1237       C  0.30064495  0.10745883  0.57745078     1.01700
O1238       O  0.27409202  0.10618575  0.59651998    -0.78700
O1239       O  0.20211297  0.10491377  0.61997400    -0.78900
C1240       C  0.19346491  0.07683378  0.64136207     1.01700
Cr1241     Cr  0.14411346  0.00808853  0.59852784     1.93700
Cr1242     Cr  0.22275950  0.01214984  0.56221727     1.93200
Cr1243     Cr  0.21958142  0.09921403  0.57783451     1.39100
O1244       O  0.19579196  0.03972949  0.57976932    -1.24000
O1245       O  0.93129865  0.76618000  0.89509359    -0.86200
O1246       O  0.01155561  0.80244265  0.86397140    -0.83300
C1247       C  0.02041729  0.77024892  0.86459631     0.97300
O1248       O  0.99206394  0.73218920  0.85294486    -0.83300
O1249       O  0.90626802  0.66753805  0.81672075    -0.85900
C1250       C  0.86841879  0.64943959  0.83073323     1.01800
O1251       O  0.86506640  0.67165960  0.85118540    -0.78700
O1252       O  0.86003765  0.73602021  0.88068009    -0.78900
C1253       C  0.88933771  0.74378838  0.90089774     1.01700
O1254       O  0.90254036  0.81792991  0.86020709    -0.86200
O1255       O  0.97452983  0.83906345  0.82303656    -0.83300
C1256       C  0.00358358  0.83619967  0.80718407     0.97300
O1257       O  0.00745207  0.80038401  0.80787094    -0.83300
O1258       O  0.93165256  0.74300044  0.77971988    -0.85900
C1259       C  0.89031958  0.72676215  0.77346759     1.01700
O1260       O  0.86004007  0.71208683  0.79353025    -0.78700
O1261       O  0.86161347  0.77985980  0.82316965    -0.78900
C1262       C  0.87789559  0.81493650  0.83841212     1.01700
Cr1263     Cr  0.95307833  0.80316653  0.85918591     1.93700
Cr1264     Cr  0.95706251  0.73596638  0.81675385     1.93200
Cr1265     Cr  0.86507946  0.72622862  0.83724099     1.39100
O1266       O  0.92500390  0.75474728  0.83750499    -1.24000
O1267       O  0.93378750  0.83154135  0.59968835    -0.86200
O1268       O  0.87236390  0.84560119  0.56772528    -0.83300
C1269       C  0.83585279  0.84193323  0.55763299     0.97300
O1270       O  0.79952121  0.80381118  0.55881788    -0.83300
O1271       O  0.82316958  0.74886101  0.52974522    -0.85900
C1272       C  0.84595855  0.72971120  0.52387220     1.01800
O1273       O  0.86047216  0.71370908  0.54410517    -0.78700
O1274       O  0.92912806  0.77870151  0.57036390    -0.78900
C1275       C  0.95080139  0.81772004  0.58033245     1.01700
O1276       O  0.86323032  0.78383219  0.64359605    -0.86200
O1277       O  0.80773611  0.80872899  0.61532602    -0.83300
C1278       C  0.76682312  0.77664651  0.61569134     0.97300
O1279       O  0.75636675  0.73847163  0.60362848    -0.83300
O1280       O  0.77630619  0.67300171  0.56705738    -0.85900
C1281       C  0.79553818  0.65476472  0.58209753     1.01700
O1282       O  0.81984471  0.67768054  0.60288180    -0.78700
O1283       O  0.89394177  0.74320788  0.62921465    -0.78900
C1284       C  0.87857821  0.75733707  0.64954756     1.01700
Cr1285     Cr  0.86791186  0.81372219  0.60531736     1.93700
Cr1286     Cr  0.79200111  0.74141827  0.56697028     1.93200
Cr1287     Cr  0.87363139  0.73015510  0.58698712     1.39100
O1288       O  0.84448259  0.76171167  0.58664573    -1.24000
O1289       O  0.86887357  0.04473762  0.89758411    -0.86200
O1290       O  0.81588811  0.96434292  0.87046611    -0.83300
C1291       C  0.77446923  0.95444984  0.87310478     0.97300
O1292       O  0.76141782  0.98137694  0.86201680    -0.83300
O1293       O  0.77244457  0.06300542  0.82353720    -0.85900
C1294       C  0.79259933  0.09966042  0.83845397     1.01800
O1295       O  0.81636878  0.09861602  0.85883455    -0.78700
O1296       O  0.89422377  0.11491649  0.88194298    -0.78900
C1297       C  0.88049752  0.08562640  0.90285651     1.01700
O1298       O  0.93765141  0.07271398  0.85174621    -0.86200
O1299       O  0.87737623  0.00097977  0.81967406    -0.83300
C1300       C  0.84391707  0.96316112  0.81407030     0.97300
O1301       O  0.80430269  0.95897369  0.81596241    -0.83300
O1302       O  0.81795871  0.03431938  0.78460127    -0.85900
C1303       C  0.83837866  0.07545678  0.77704839     1.01700
O1304       O  0.85327497  0.10675223  0.79631826    -0.78700
O1305       O  0.92759412  0.11774892  0.82146503    -0.78900
C1306       C  0.95192980  0.10232539  0.83122973     1.01700
Cr1307     Cr  0.87359214  0.02207958  0.85881566     1.93700
Cr1308     Cr  0.79178733  0.01203494  0.82336993     1.93200
Cr1309     Cr  0.87095897  0.10625388  0.83996693     1.39100
O1310       O  0.84550513  0.04696604  0.84095883    -1.24000
O1311       O  0.89002623  0.02876498  0.60353121    -0.86200
O1312       O  0.95997824  0.08699688  0.56811320    -0.83300
C1313       C  0.99247238  0.12163630  0.55636694     0.97300
O1314       O  0.99591152  0.16054141  0.56009593    -0.83300
O1315       O  0.91860424  0.14791676  0.53409033    -0.85900
C1316       C  0.87709684  0.12481548  0.52772860     1.01800
O1317       O  0.84688972  0.10803066  0.54792454    -0.78700
O1318       O  0.84447350  0.03608853  0.57260478    -0.78900
C1319       C  0.86140410  0.01331366  0.58284012     1.10700
O1320       O  0.92039473  0.09955833  0.64641024    -0.86200
O1321       O  0.99910388  0.14986929  0.61547436    -0.83300
C1322       C  0.00947637  0.19086958  0.61907118     0.97300
O1323       O  0.98153143  0.20396358  0.60964566    -0.83300
O1324       O  0.89529533  0.19327312  0.57560714    -0.85900
C1325       C  0.85721637  0.17138478  0.58916749     1.01700
O1326       O  0.85580977  0.14486831  0.60883955    -0.78700
O1327       O  0.84843952  0.06992585  0.63349307    -0.78900
C1328       C  0.87951269  0.08579987  0.65325373     1.01700
Cr1329     Cr  0.94028571  0.09302700  0.60720894     1.93700
Cr1330     Cr  0.94527311  0.17340428  0.57218274     1.93200
Cr1331     Cr  0.85238495  0.09158549  0.59096633     1.39100
O1332       O  0.91246238  0.11955677  0.59021395    -1.24000
C1333       C  0.85036616  0.06251514  0.95399749    -0.10000
C1334       C  0.87666418  0.09800614  0.93380753     0.06200
C1335       C  0.89678034  0.14332227  0.94384323    -0.03800
C1336       C  0.89477677  0.15154439  0.97392558    -0.08200
C1337       C  0.87166840  0.11568151  0.99434242     0.05300
C1338       C  0.84724382  0.07101095  0.98381371    -0.03300
Br1339     Br  0.81218222  0.01980447  0.00932205    -0.03000
H1340       H  0.83257537  0.02753137  0.94674796     0.09200
H1341       H  0.91334861  0.18622570  0.98173795     0.07200
Br1342     Br  0.92919338  0.19570007  0.91855147    -0.03400
C1343       C  0.88967484  0.11605218  0.73511342    -0.10000
C1344       C  0.84579744  0.08564756  0.74512515     0.06200
C1345       C  0.81196111  0.05884243  0.72436733    -0.03800
C1346       C  0.82330787  0.06003668  0.69456301    -0.08200
C1347       C  0.86816600  0.08783715  0.68472176     0.05300
C1348       C  0.90117237  0.11759317  0.70528414    -0.03300
Br1349     Br  0.96263758  0.16176490  0.69482240    -0.03000
H1350       H  0.91585156  0.13696754  0.75082206     0.09200
H1351       H  0.79708109  0.03816105  0.67920715     0.07200
Br1352     Br  0.74956905  0.01982873  0.73560619    -0.03400
C1353       C  0.79984469  0.88801097  0.56782286    -0.10000
C1354       C  0.83385016  0.88393467  0.55261281     0.06200
C1355       C  0.87235962  0.92348387  0.54221341    -0.03800
C1356       C  0.87961094  0.96591497  0.55112345    -0.08200
C1357       C  0.84880726  0.96926342  0.57008269     0.05300
C1358       C  0.80734061  0.93047658  0.57691802    -0.03300
Br1359     Br  0.76289375  0.93365285  0.60146633    -0.03000
H1360       H  0.76990238  0.85805882  0.57572046     0.09200
H1361       H  0.91031126  0.99633364  0.54426710     0.07200
Br1362     Br  0.91705144  0.92072216  0.51763786    -0.03400
C1363       C  0.82983986  0.84400329  0.81456931    -0.10000
C1364       C  0.86912866  0.85239911  0.83073749     0.06200
C1365       C  0.90102878  0.89738669  0.83812030    -0.03800
C1366       C  0.89277019  0.93225251  0.83008886    -0.08200
C1367       C  0.85242363  0.92419359  0.81551207     0.05300
C1368       C  0.82101740  0.87951275  0.80717514    -0.03300
Br1369     Br  0.76643014  0.86532361  0.78575255    -0.03000
H1370       H  0.80539233  0.80958261  0.80824103     0.09200
H1371       H  0.91798901  0.96616565  0.83678470     0.07200
Br1372     Br  0.95774282  0.91542433  0.85851024    -0.03400
C1373       C  0.91036523  0.73961311  0.95285067    -0.10000
C1374       C  0.87570523  0.73025541  0.93198004     0.06200
C1375       C  0.83036297  0.71192232  0.94199583    -0.03800
C1376       C  0.82203618  0.71020472  0.97227210    -0.08200
C1377       C  0.85768999  0.72434363  0.99277735     0.05300
C1378       C  0.90165305  0.73643787  0.98303075    -0.03300
Br1379     Br  0.95208576  0.75320462  0.00940999    -0.03000
H1380       H  0.94511633  0.75155896  0.94580631     0.09200
H1381       H  0.78760575  0.69868208  0.97988318     0.07200
Br1382     Br  0.77824804  0.68915239  0.91630138    -0.03400
C1383       C  0.84871090  0.74825288  0.70064404    -0.10000
C1384       C  0.87781270  0.74300047  0.68076947     0.06200
C1385       C  0.90473351  0.72442346  0.69150151    -0.03800
C1386       C  0.90540249  0.71613722  0.72177764    -0.08200
C1387       C  0.87903474  0.72492783  0.74180889     0.05300
C1388       C  0.84877290  0.73896645  0.73083617    -0.03300
Br1389     Br  0.80948511  0.74957520  0.75599549    -0.03000
H1390       H  0.82626805  0.76062040  0.69280946     0.09200
H1391       H  0.92818679  0.70436726  0.72993723     0.07200
Br1392     Br  0.94333366  0.71162030  0.66699674    -0.03400
C1393       C  0.01992030  0.07007448  0.54255517    -0.10000
C1394       C  0.02971864  0.11551627  0.54454512     0.06200
C1395       C  0.07562218  0.14976091  0.54712529    -0.03800
C1396       C  0.10852998  0.13710775  0.55383916    -0.08200
C1397       C  0.09545567  0.09114969  0.55934012     0.05300
C1398       C  0.05105658  0.05739733  0.55255370    -0.03300
Br1399     Br  0.02912069  0.99389519  0.55960556    -0.03000
H1400       H  0.98535412  0.04332623  0.53854544     0.09200
H1401       H  0.14347918  0.16333284  0.55740993     0.07200
Br1402     Br  0.09455557  0.21349688  0.54527292    -0.03400
C1403       C  0.07691907  0.87330168  0.56961833    -0.10000
C1404       C  0.08358158  0.90531416  0.54739797     0.06200
C1405       C  0.04549199  0.90203384  0.53233448    -0.03800
C1406       C  0.00189968  0.87277686  0.54325230    -0.08200
C1407       C  0.99634109  0.84657551  0.56880268     0.05300
C1408       C  0.03366953  0.84444634  0.58079169    -0.03300
Br1409     Br  0.02753045  0.80591886  0.61402540    -0.03000
H1410       H  0.10583905  0.87511961  0.58135668     0.09200
H1411       H  0.97252466  0.87161402  0.53246161     0.07200
Br1412     Br  0.05247361  0.93983875  0.49853746    -0.03400
C1413       C  0.08323058  0.88914776  0.79497501    -0.10000
C1414       C  0.03763351  0.87845628  0.79299550     0.06200
C1415       C  0.02741912  0.91403602  0.78954994    -0.03800
C1416       C  0.05971628  0.95772746  0.79784426    -0.08200
C1417       C  0.10373527  0.96709808  0.80537407     0.05300
C1418       C  0.11675836  0.93384875  0.80040330    -0.03300
Br1419     Br  0.17828881  0.94595926  0.80359712    -0.03000
H1420       H  0.09216312  0.86237399  0.79585253     0.09200
H1421       H  0.05020904  0.98395541  0.79913193     0.07200
Br1422     Br  0.96833609  0.90297698  0.77700559    -0.03400
C1423       C  0.21007677  0.10647319  0.94157383    -0.10000
C1424       C  0.20797397  0.07274136  0.92246353     0.06200
C1425       C  0.21822328  0.03995048  0.93424201    -0.03800
C1426       C  0.22772193  0.04000228  0.96450517    -0.08200
C1427       C  0.22721512  0.07214248  0.98394380     0.05300
C1428       C  0.21932017  0.10642200  0.97186470    -0.03300
Br1429     Br  0.21639009  0.15174401  0.99546966    -0.03000
H1430       H  0.20331576  0.13274130  0.93303318     0.09200
H1431       H  0.23380132  0.01331913  0.97311869     0.07200
Br1432     Br  0.21597385  0.99180912  0.91108233    -0.03400
C1433       C  0.21780449  0.06415337  0.69116727    -0.10000
C1434       C  0.20815850  0.09203645  0.67234463     0.06200
C1435       C  0.21205439  0.13227868  0.68397816    -0.03800
C1436       C  0.22253576  0.14221984  0.71399829    -0.08200
C1437       C  0.22959752  0.11295801  0.73337940     0.05300
C1438       C  0.22854977  0.07416293  0.72117382    -0.03300
Br1439     Br  0.23867686  0.03169613  0.74405370    -0.03000
H1440       H  0.21624936  0.03361018  0.68256316     0.09200
H1441       H  0.22348498  0.17255750  0.72243816     0.07200
Br1442     Br  0.19994311  0.17326713  0.66090645    -0.03400
C1443       C  0.07623003  0.16998296  0.81019633    -0.10000
C1444       C  0.08135400  0.13603607  0.79591241     0.06200
C1445       C  0.04193245  0.09605601  0.78717840    -0.03800
C1446       C  0.99986990  0.08568405  0.79901601    -0.08200
C1447       C  0.99594672  0.11671892  0.81718482     0.05300
C1448       C  0.03318586  0.16088976  0.82000224    -0.03300
Br1449     Br  0.02690087  0.20863449  0.83775829    -0.03000
H1450       H  0.10588526  0.20176231  0.81620334     0.09200
H1451       H  0.97032377  0.05302656  0.79443620     0.07200
Br1452     Br  0.04482120  0.05279810  0.76147723    -0.03400
C1453       C  0.11516719  0.77916300  0.91658618    -0.10000
C1454       C  0.15366066  0.82058046  0.90714073     0.06200
C1455       C  0.14767853  0.84173719  0.88164663    -0.03800
C1456       C  0.10475384  0.82327911  0.86751942    -0.08200
C1457       C  0.06661111  0.78210888  0.87704871     0.05300
C1458       C  0.07277191  0.75977059  0.90165052    -0.03300
Br1459     Br  0.02389920  0.70323210  0.91605115    -0.03000
H1460       H  0.11819914  0.76058923  0.93538515     0.09200
H1461       H  0.10103644  0.84162764  0.84883009     0.07200
Br1462     Br  0.19704183  0.89536177  0.86468705    -0.03400
C1463       C  0.14681738  0.82215484  0.61348673    -0.10000
C1464       C  0.12933811  0.80941050  0.64245802     0.06200
C1465       C  0.13490858  0.84522419  0.66116283    -0.03800
C1466       C  0.15794492  0.89110788  0.65144448    -0.08200
C1467       C  0.17820566  0.90415590  0.62327394     0.05300
C1468       C  0.17229299  0.86845556  0.60433123    -0.03300
Br1469     Br  0.19535736  0.88069742  0.56466811    -0.03000
H1470       H  0.14252524  0.79618839  0.59809416     0.09200
H1471       H  0.15907390  0.91693887  0.66592387     0.07200
Br1472     Br  0.11017316  0.83304148  0.70045640    -0.03400
C1473       C  0.22836800  0.81077280  0.77463977    -0.10000
C1474       C  0.19339924  0.76778720  0.76614385     0.06200
C1475       C  0.16326997  0.73843742  0.78825240    -0.03800
C1476       C  0.17184761  0.75010165  0.81812464    -0.08200
C1477       C  0.20989156  0.79086080  0.82679805     0.05300
C1478       C  0.23660535  0.82263457  0.80454134    -0.03300
Br1479     Br  0.28479180  0.88285751  0.81324675    -0.03000
H1480       H  0.25090056  0.83454558  0.75809949     0.09200
H1481       H  0.14989846  0.72592949  0.83470945     0.07200
Br1482     Br  0.10987377  0.68156468  0.77956766    -0.03400
C1483       C  0.17009597  0.72982146  0.52210842    -0.10000
C1484       C  0.21553939  0.74772822  0.51287931     0.06200
C1485       C  0.25054705  0.77129384  0.53422993    -0.03800
C1486       C  0.23946032  0.77319082  0.56384850    -0.08200
C1487       C  0.19418233  0.75278544  0.57310979     0.05300
C1488       C  0.15936157  0.73227581  0.55171634    -0.03300
Br1489     Br  0.09628201  0.70695426  0.56199985    -0.03000
H1490       H  0.14257566  0.71335134  0.50634252     0.09200
H1491       H  0.26648895  0.78876743  0.58006252     0.07200
Br1492     Br  0.31468551  0.80212143  0.52561320    -0.03400
C1493       C  0.15581334  0.55128118  0.64644281    -0.10000
C1494       C  0.19211459  0.59548972  0.64220791     0.06200
C1495       C  0.23712603  0.60297270  0.64141890    -0.03800
C1496       C  0.24547986  0.56791806  0.64969863    -0.08200
C1497       C  0.20934835  0.52526699  0.65762916     0.05300
C1498       C  0.16411426  0.51610728  0.65437347    -0.03300
Br1499     Br  0.11266743  0.45829639  0.66446706    -0.03000
H1500       H  0.12111597  0.54497969  0.64701317     0.09200
H1501       H  0.28024850  0.57418559  0.65056102     0.07200
Br1502     Br  0.28843400  0.66094164  0.63112798    -0.03400
C1503       C  0.06532802  0.26395250  0.64456283    -0.10000
C1504       C  0.05618601  0.22238821  0.63261148     0.06200
C1505       C  0.09239793  0.21152719  0.63440166    -0.03800
C1506       C  0.13640857  0.24341388  0.64492656    -0.08200
C1507       C  0.14542239  0.28500752  0.65706556     0.05300
C1508       C  0.10769342  0.29365740  0.65773704    -0.03300
Br1509     Br  0.10879203  0.34468548  0.67661138    -0.03000
H1510       H  0.03849220  0.27282562  0.64471065     0.09200
H1511       H  0.16330221  0.23472589  0.64477330     0.07200
Br1512     Br  0.08489989  0.15294576  0.62485885    -0.03400
C1513       C  0.12790463  0.21160007  0.88664862    -0.10000
C1514       C  0.17431233  0.22453627  0.88065439     0.06200
C1515       C  0.20748493  0.26822956  0.88974037    -0.03800
C1516       C  0.19424756  0.29780394  0.90261280    -0.08200
C1517       C  0.14796999  0.28580956  0.90684398     0.05300
C1518       C  0.11494302  0.24127301  0.89993734    -0.03300
Br1519     Br  0.05307637  0.21820491  0.91220073    -0.03000
H1520       H  0.10103024  0.17780226  0.88123692     0.09200
H1521       H  0.22091492  0.33099119  0.90933147     0.07200
Br1522     Br  0.27146376  0.28931124  0.88636507    -0.03400
C1523       C  0.24495913  0.38843889  0.55825053    -0.10000
C1524       C  0.21341178  0.39027316  0.57769096     0.06200
C1525       C  0.17757494  0.39552340  0.56575840    -0.03800
C1526       C  0.17691945  0.40360557  0.53538519    -0.08200
C1527       C  0.21128000  0.40639236  0.51637928     0.05300
C1528       C  0.24434396  0.39646426  0.52795117    -0.03300
Br1529     Br  0.29225244  0.39744567  0.50464370    -0.03000
H1530       H  0.27207177  0.38309570  0.56691003     0.09200
H1531       H  0.15006767  0.40937240  0.52674663     0.07200
Br1532     Br  0.13088621  0.39592990  0.58961242    -0.03400
C1533       C  0.16845334  0.40500205  0.77658177    -0.10000
C1534       C  0.20993182  0.40964561  0.76707115     0.06200
C1535       C  0.23735014  0.40185660  0.78767850    -0.03800
C1536       C  0.22537218  0.39449789  0.81753014    -0.08200
C1537       C  0.18570914  0.39349588  0.82741448     0.05300
C1538       C  0.15581752  0.39641983  0.80631103    -0.03300
Br1539     Br  0.09674147  0.38823718  0.81607501    -0.03000
H1540       H  0.14613792  0.40907442  0.76096895     0.09200
H1541       H  0.24799834  0.39100459  0.83318625     0.07200
Br1542     Br  0.29052663  0.39861216  0.77678329    -0.03400
C1543       C  0.13834553  0.55558044  0.89981068    -0.10000
C1544       C  0.16918865  0.54561547  0.88560123     0.06200
C1545       C  0.20906836  0.58136029  0.87304592    -0.03800
C1546       C  0.22180292  0.62624274  0.87982794    -0.08200
C1547       C  0.19396943  0.63565706  0.89787498     0.05300
C1548       C  0.15055386  0.60051077  0.90608361    -0.03300
Br1549     Br  0.11001953  0.61140564  0.92988163    -0.03000
H1550       H  0.10770165  0.52859818  0.90966720     0.09200
H1551       H  0.25436793  0.65353476  0.87226985     0.07200
Br1552     Br  0.24961835  0.56974164  0.84977529    -0.03400
C1553       C  0.46753372  0.82901849  0.89061989    -0.10000
C1554       C  0.45915952  0.78455975  0.88603745     0.06200
C1555       C  0.42013979  0.75453684  0.86994752    -0.03800
C1556       C  0.38593060  0.76545494  0.86468679    -0.08200
C1557       C  0.38998893  0.80602369  0.87533660     0.05300
C1558       C  0.43332309  0.84035143  0.88480041    -0.03300
Br1559     Br  0.44620879  0.90107656  0.89345245    -0.03000
H1560       H  0.49891472  0.85364855  0.90109044     0.09200
H1561       H  0.35392182  0.73984575  0.85537973     0.07200
Br1562     Br  0.41070259  0.69798434  0.85493186    -0.03400
C1563       C  0.68345168  0.85508869  0.91951751    -0.10000
C1564       C  0.68478300  0.81646214  0.90833616     0.06200
C1565       C  0.71661675  0.82488302  0.88563445    -0.03800
C1566       C  0.74493395  0.86975620  0.87483840    -0.08200
C1567       C  0.74197326  0.90761638  0.88529179     0.05300
C1568       C  0.71082920  0.89955967  0.90812082    -0.03300
Br1569     Br  0.70570986  0.94844962  0.92534504    -0.03000
H1570       H  0.65974988  0.85083003  0.93692169     0.09200
H1571       H  0.76930642  0.87503984  0.85770844     0.07200
Br1572     Br  0.72352425  0.77694033  0.86863275    -0.03400
C1573       C  0.38698099  0.60409310  0.89971958    -0.10000
C1574       C  0.41897137  0.59306132  0.88791519     0.06200
C1575       C  0.40551490  0.54694925  0.88364181    -0.03800
C1576       C  0.36133827  0.51333211  0.89192640    -0.08200
C1577       C  0.33092353  0.52514944  0.90536660     0.05300
C1578       C  0.34389576  0.57127097  0.90834301    -0.03300
Br1579     Br  0.30566666  0.59316751  0.92456230    -0.03000
H1580       H  0.39605759  0.63885806  0.90436620     0.09200
H1581       H  0.35151443  0.47786183  0.88912484     0.07200
Br1582     Br  0.44621666  0.52816199  0.86803470    -0.03400
C1583       C  0.42619974  0.55050272  0.66364813    -0.10000
C1584       C  0.39362418  0.54178506  0.64146944     0.06200
C1585       C  0.39687980  0.57834945  0.62432362    -0.03800
C1586       C  0.42891204  0.62299906  0.63171329    -0.08200
C1587       C  0.45756508  0.63152042  0.65627097     0.05300
C1588       C  0.45798273  0.59502468  0.67119881    -0.03300
Br1589     Br  0.49945885  0.60451893  0.70303248    -0.03000
H1590       H  0.42390376  0.52301231  0.67735197     0.09200
H1591       H  0.42997816  0.65112169  0.61916667     0.07200
Br1592     Br  0.35560673  0.56838686  0.59226452    -0.03400
C1593       C  0.67895099  0.81710259  0.61561083    -0.10000
C1594       C  0.68361579  0.83559800  0.64403476     0.06200
C1595       C  0.71604292  0.83337006  0.66306148    -0.03800
C1596       C  0.74093124  0.81194943  0.65416153    -0.08200
C1597       C  0.73265863  0.78936728  0.62690994     0.05300
C1598       C  0.70086449  0.79223169  0.60767632    -0.03300
Br1599     Br  0.68685636  0.76379683  0.56973738    -0.03000
H1600       H  0.65625999  0.81976855  0.59978027     0.09200
H1601       H  0.76702933  0.81289153  0.66874759     0.07200
Br1602     Br  0.72790602  0.85993770  0.70156955    -0.03400
C1603       C  0.57141313  0.79206956  0.77951694    -0.10000
C1604       C  0.57347020  0.76029918  0.76057080     0.06200
C1605       C  0.58894994  0.73135138  0.77228908    -0.03800
C1606       C  0.59675333  0.73122893  0.80279886    -0.08200
C1607       C  0.58994368  0.75981719  0.82209431     0.05300
C1608       C  0.57940981  0.79210850  0.80985910    -0.03300
Br1609     Br  0.56977486  0.83351948  0.83330962    -0.03000
H1610       H  0.56124396  0.81589420  0.77091361     0.09200
H1611       H  0.60563168  0.70664964  0.81177139     0.07200
Br1612     Br  0.59631915  0.68854525  0.74879150    -0.03400
C1613       C  0.56844704  0.80321677  0.51938771    -0.10000
C1614       C  0.53715369  0.75930923  0.50961469     0.06200
C1615       C  0.51847622  0.72319105  0.53098343    -0.03800
C1616       C  0.53098192  0.73182931  0.56072234    -0.08200
C1617       C  0.56089028  0.77572229  0.57024619     0.05300
C1618       C  0.57968115  0.81168251  0.54938929    -0.03300
Br1619     Br  0.61980703  0.87323926  0.56109232    -0.03000
H1620       H  0.58375642  0.83136124  0.50375838     0.09200
H1621       H  0.51510942  0.70440324  0.57686335     0.07200
Br1622     Br  0.51727826  0.66276940  0.02053063    -0.03400
C1623       C  0.39248715  0.77129822  0.68271785    -0.10000
C1624       C  0.40901705  0.78469758  0.65382062     0.06200
C1625       C  0.38540332  0.79724646  0.63367871    -0.03800
C1626       C  0.34405010  0.79369510  0.64230372    -0.08200
C1627       C  0.32656708  0.77845495  0.67106312     0.05300
C1628       C  0.35251829  0.76944831  0.69178837    -0.03300
Br1629     Br  0.33657280  0.75514970  0.73284693    -0.03000
H1630       H  0.41091275  0.76216885  0.69861023     0.09200
H1631       H  0.32460839  0.80085095  0.62600674     0.07200
Br1632     Br  0.40617423  0.81502030  0.59385195    -0.03400
C1633       C  0.81502828  0.61959212  0.53913406    -0.10000
C1634       C  0.80609573  0.61924801  0.56962700     0.06200
C1635       C  0.82005491  0.59415489  0.58830559    -0.03800
C1636       C  0.84214625  0.57132987  0.57666229    -0.08200
C1637       C  0.85468857  0.57535046  0.54662772     0.05300
C1638       C  0.84141779  0.60090418  0.52810036    -0.03300
Br1639     Br  0.85392634  0.60573062  0.98571049    -0.03000
H1640       H  0.80409490  0.63720321  0.52381366     0.09200
H1641       H  0.84899439  0.54970496  0.59123536     0.07200
Br1642     Br  0.80801978  0.58829266  0.63002840    -0.03400
C1643       C  0.06967266  0.46228130  0.99647336    -0.10000
C1644       C  0.06587036  0.44742380  0.96709449     0.06200
C1645       C  0.03845670  0.45694497  0.94768053    -0.03800
C1646       C  0.01713784  0.48157002  0.95732494    -0.08200
C1647       C  0.01774612  0.49316933  0.98724354     0.05300
C1648       C  0.04494838  0.48323665  0.00675650    -0.03300
Br1649     Br  0.05735314  0.51090215  0.54523887    -0.03000
H1650       H  0.09239268  0.45789707  0.01153514     0.09200
H1651       H  0.99786716  0.48938631  0.94141739     0.07200
Br1652     Br  0.02832659  0.43639633  0.90757538    -0.03400
C1653       C  0.85517174  0.17982978  0.82662517    -0.10000
C1654       C  0.80802936  0.14663193  0.82523519     0.06200
C1655       C  0.77904542  0.15993391  0.81149362    -0.03800
C1656       C  0.79719579  0.20316257  0.79777711    -0.08200
C1657       C  0.84477302  0.23503857  0.79742527     0.05300
C1658       C  0.87363609  0.22243551  0.81218802    -0.03300
Br1659     Br  0.93814358  0.26233544  0.81440686    -0.03000
H1660       H  0.87878508  0.17269540  0.83858854     0.09200
H1661       H  0.77335914  0.21210119  0.78771476     0.07200
Br1662     Br  0.71452995  0.12336237  0.81516091    -0.03400
C1663       C  0.01885468  0.48450991  0.70035729    -0.10000
C1664       C  0.02042561  0.47374745  0.73059993     0.06200
C1665       C  0.04676270  0.51119693  0.74927775    -0.03800
C1666       C  0.06765217  0.55657549  0.73848384    -0.08200
C1667       C  0.06263994  0.56753758  0.70895955     0.05300
C1668       C  0.03817339  0.53029390  0.68983366    -0.03300
Br1669     Br  0.03063505  0.54034778  0.64887147    -0.03000
H1670       H  0.00044007  0.45730988  0.68491322     0.09200
H1671       H  0.08881046  0.58377407  0.75338701     0.07200
Br1672     Br  0.05672180  0.50209098  0.79008741    -0.03400
C1673       C  0.90564593  0.40851738  0.89823460    -0.10000
C1674       C  0.91019582  0.45003543  0.90723432     0.06200
C1675       C  0.91390680  0.48221710  0.88533046    -0.03800
C1676       C  0.90931005  0.47087946  0.85540756    -0.08200
C1677       C  0.90094111  0.42787418  0.84657855     0.05300
C1678       C  0.90105977  0.39717920  0.86832394    -0.03300
Br1679     Br  0.89517597  0.33905900  0.85909897    -0.03000
H1680       H  0.90364481  0.38383954  0.91461346     0.09200
H1681       H  0.91034479  0.49519017  0.83908201     0.07200
Br1682     Br  0.92519355  0.54240172  0.89438229    -0.03400
C1683       C  0.91191255  0.45268232  0.64570893    -0.10000
C1684       C  0.90732458  0.41130416  0.65594598     0.06200
C1685       C  0.89999394  0.37715644  0.63512571    -0.03800
C1686       C  0.89359908  0.38361361  0.60537370    -0.08200
C1687       C  0.89464389  0.42351495  0.59563060     0.05300
C1688       C  0.90604683  0.45916874  0.61577409    -0.03300
Br1689     Br  0.91558526  0.51793646  0.60364981    -0.03000
H1690       H  0.91865285  0.47957706  0.66111226     0.09200
H1691       H  0.88601738  0.35650183  0.58995168     0.07200
Br1692     Br  0.89775770  0.32035929  0.64500171    -0.03400
C1693       C  0.74123919  0.56740725  0.82704876    -0.10000
C1694       C  0.73050966  0.57371253  0.79775111     0.06200
C1695       C  0.76780523  0.59818982  0.77833131    -0.03800
C1696       C  0.81325488  0.61581067  0.78829025    -0.08200
C1697       C  0.82367148  0.61331897  0.81825916     0.05300
C1698       C  0.78648952  0.58741330  0.83740867    -0.03300
Br1699     Br  0.79590488  0.57716782  0.87812165    -0.03000
H1700       H  0.71420595  0.54546393  0.84196263     0.09200
H1701       H  0.84063328  0.63422391  0.77272576     0.07200
Br1702     Br  0.75896746  0.60812633  0.73759329    -0.03400
C1703       C  0.47781371  0.47847813  0.70279668    -0.10000
C1704       C  0.48963638  0.49417881  0.73206037     0.06200
C1705       C  0.45333425  0.48480284  0.75147994    -0.03800
C1706       C  0.40769932  0.45988184  0.74217089    -0.08200
C1707       C  0.39559654  0.44133042  0.71368347     0.05300
C1708       C  0.43182319  0.45095484  0.69399720    -0.03300
Br1709     Br  0.42029517  0.42952966  0.65412659    -0.03000
H1710       H  0.50435637  0.48591136  0.68685212     0.09200
H1711       H  0.38143894  0.45669782  0.75711688     0.07200
Br1712     Br  0.46457188  0.50715490  0.79110462    -0.03400
C1713       C  0.75691215  0.48689616  0.75834452    -0.10000
C1714       C  0.73155020  0.47387153  0.73207697     0.06200
C1715       C  0.74268936  0.45283290  0.70969520    -0.03800
C1716       C  0.77664315  0.44139638  0.71494834    -0.08200
C1717       C  0.79781036  0.44952683  0.74273798     0.05300
C1718       C  0.78946197  0.47410375  0.76406608    -0.03300
Br1719     Br  0.81935805  0.48811296  0.80190758    -0.03000
H1720       H  0.74855394  0.50312898  0.77573835     0.09200
H1721       H  0.78409030  0.42323131  0.69827825     0.07200
Br1722     Br  0.70971821  0.43609557  0.67312646    -0.03400
C1723       C  0.38034703  0.16455177  0.55973300    -0.10000
C1724       C  0.33587210  0.15450199  0.56626502     0.06200
C1725       C  0.32625283  0.19149941  0.56370504    -0.03800
C1726       C  0.35879543  0.23455176  0.55262390    -0.08200
C1727       C  0.40317811  0.24463123  0.54603947     0.05300
C1728       C  0.41412724  0.20896487  0.55123813    -0.03300
Br1729     Br  0.47497575  0.21772911  0.54996509    -0.03000
H1730       H  0.38962343  0.13825329  0.56277840     0.09200
H1731       H  0.34949258  0.26088302  0.54986900     0.07200
Br1732     Br  0.27024126  0.18872363  0.57524475    -0.03400
C1733       C  0.67473238  0.42511710  0.46371764    -0.10000
C1734       C  0.66640071  0.44872239  0.48575308     0.06200
C1735       C  0.69994296  0.47456171  0.00418421    -0.03800
C1736       C  0.74500543  0.49196275  0.99564580    -0.08200
C1737       C  0.75618514  0.47531514  0.97066416     0.05300
C1738       C  0.72140116  0.44608579  0.95152365    -0.03300
Br1739     Br  0.72917518  0.40097620  0.42790531    -0.03000
H1740       H  0.64669051  0.39596667  0.45363312     0.09200
H1741       H  0.77122703  0.51436220  0.01070329     0.07200
Br1742     Br  0.68741785  0.49343795  0.04119511    -0.03400
C1743       C  0.53870841  0.56829697  0.97759543    -0.10000
C1744       C  0.50579647  0.57725280  0.96515256     0.06200
C1745       C  0.45935212  0.54185927  0.96835014    -0.03800
C1746       C  0.44802592  0.49800789  0.97939257    -0.08200
C1747       C  0.48105452  0.48891702  0.99159457     0.05300
C1748       C  0.52686886  0.52655766  0.99211049    -0.03300
Br1749     Br  0.57239239  0.53294120  0.51864392    -0.03000
H1750       H  0.57404885  0.59483765  0.97718783     0.09200
H1751       H  0.41266115  0.47156563  0.98004180     0.07200
Br1752     Br  0.40825621  0.55105463  0.96196026    -0.03400
C1753       C  0.58137008  0.46938344  0.60745237    -0.10000
C1754       C  0.54964902  0.42582889  0.59776164     0.06200
C1755       C  0.51865031  0.39405068  0.61864113    -0.03800
C1756       C  0.52315812  0.40472580  0.64871369    -0.08200
C1757       C  0.55735870  0.44698924  0.65851005     0.05300
C1758       C  0.58507579  0.48030918  0.63738353    -0.03300
Br1759     Br  0.62756406  0.54200304  0.64780954    -0.03000
H1760       H  0.60399825  0.49495884  0.59177378     0.09200
H1761       H  0.50066579  0.37940505  0.66457064     0.07200
Br1762     Br  0.46807781  0.33620301  0.60794906    -0.03400
C1763       C  0.55572753  0.46387803  0.89850381    -0.10000
C1764       C  0.51371149  0.42902911  0.90857735     0.06200
C1765       C  0.48093981  0.40124874  0.88739158    -0.03800
C1766       C  0.49356323  0.40272237  0.85779330    -0.08200
C1767       C  0.53786743  0.43352721  0.84845903     0.05300
C1768       C  0.56729465  0.46723995  0.86854634    -0.03300
Br1769     Br  0.62222390  0.52026407  0.85627013    -0.03000
H1770       H  0.58038334  0.48737681  0.91404921     0.09200
H1771       H  0.46906470  0.37890496  0.84232941     0.07200
Br1772     Br  0.41824328  0.36134940  0.89751931    -0.03400
C1773       C  0.38370061  0.18004905  0.81048152    -0.10000
C1774       C  0.33938276  0.14580118  0.81737602     0.06200
C1775       C  0.33059567  0.09982622  0.81461044    -0.03800
C1776       C  0.36226351  0.08966151  0.80152224    -0.08200
C1777       C  0.40635032  0.12355205  0.79462362     0.05300
C1778       C  0.41756051  0.16942025  0.80126244    -0.03300
Br1779     Br  0.47881794  0.21952847  0.80164238    -0.03000
H1780       H  0.39297492  0.21520151  0.81418733     0.09200
H1781       H  0.35308010  0.05438820  0.79841108     0.07200
Br1782     Br  0.27866916  0.04729652  0.83058598    -0.03400
C1783       C  0.74495121  0.20682504  0.72473184    -0.10000
C1784       C  0.75039026  0.25053438  0.71987083     0.06200
C1785       C  0.71129693  0.25533610  0.71710737    -0.03800
C1786       C  0.66922765  0.21939442  0.72535439    -0.08200
C1787       C  0.66466404  0.17749000  0.73403895     0.05300
C1788       C  0.70191303  0.16991954  0.73119988    -0.03300
Br1789     Br  0.69644143  0.11129620  0.73821252    -0.03000
H1790       H  0.77441292  0.20202533  0.72606378     0.09200
H1791       H  0.64010275  0.22434762  0.72557151     0.07200
Br1792     Br  0.71354702  0.31074384  0.70376127    -0.03400
C1793       C  0.51135503  0.94921843  0.74538899    -0.10000
C1794       C  0.47302983  0.95043955  0.73279104     0.06200
C1795       C  0.45200668  0.92179884  0.70845946    -0.03800
C1796       C  0.47008682  0.89500571  0.69697653    -0.08200
C1797       C  0.50942221  0.89563457  0.70900746     0.05300
C1798       C  0.52921355  0.92258963  0.73390991    -0.03300
Br1799     Br  0.57930909  0.92218890  0.75401342    -0.03000
H1800       H  0.52862604  0.96987597  0.76435921     0.09200
H1801       H  0.45285152  0.87304603  0.67854864     0.07200
Br1802     Br  0.39712380  0.91561650  0.69132799    -0.03400
C1803       C  0.56580794  0.25815834  0.72243050    -0.10000
C1804       C  0.52058384  0.22261609  0.72032489     0.06200
C1805       C  0.48513291  0.23275650  0.72476441    -0.03800
C1806       C  0.49576867  0.27599690  0.73486310    -0.08200
C1807       C  0.54086949  0.30821139  0.74219799     0.05300
C1808       C  0.57611071  0.29906280  0.73540494    -0.03300
Br1809     Br  0.63885453  0.33885194  0.74487064    -0.03000
H1810       H  0.59362711  0.25225376  0.71750784     0.09200
H1811       H  0.46845938  0.28347663  0.73872254     0.07200
Br1812     Br  0.42198197  0.18888049  0.71966407    -0.03400
C1813       C  0.76311493  0.17508084  0.54102709    -0.10000
C1814       C  0.72485645  0.13137586  0.54632676     0.06200
C1815       C  0.73010287  0.10370797  0.56778083    -0.03800
C1816       C  0.77246597  0.11870181  0.58212102    -0.08200
C1817       C  0.81152410  0.16159427  0.57586023     0.05300
C1818       C  0.80561693  0.19012371  0.55536569    -0.03300
Br1819     Br  0.85339045  0.25100732  0.54772854    -0.03000
H1820       H  0.75996307  0.19817352  0.52556274     0.09200
H1821       H  0.77486010  0.09567401  0.59802703     0.07200
Br1822     Br  0.67966857  0.04650224  0.57987152    -0.03400
C1823       C  0.55444861  0.22417622  0.95764649    -0.10000
C1824       C  0.52253201  0.18925439  0.47716958     0.06200
C1825       C  0.47744744  0.18088160  0.47969235    -0.03800
C1826       C  0.46757927  0.21560737  0.47230556    -0.08200
C1827       C  0.50113787  0.25278227  0.95864814     0.05300
C1828       C  0.54258526  0.25673657  0.94888526    -0.03300
Br1829     Br  0.58631353  0.30893363  0.92697477    -0.03000
H1830       H  0.58812401  0.22952235  0.95261694     0.09200
H1831       H  0.43482635  0.21166667  0.47844459     0.07200
Br1832     Br  0.42997815  0.12490254  0.49599103    -0.03400
C1833       C  0.40395218  0.93300261  0.97964737    -0.10000
C1834       C  0.39727687  0.89235198  0.96764397     0.06200
C1835       C  0.43457670  0.88321100  0.97042458    -0.03800
C1836       C  0.47772699  0.91644740  0.98123957    -0.08200
C1837       C  0.48462724  0.95765558  0.99282089     0.05300
C1838       C  0.44536708  0.96396387  0.99323503    -0.03300
Br1839     Br  0.44264929  0.01309765  0.01206037    -0.03000
H1840       H  0.37604128  0.94033527  0.97923256     0.09200
H1841       H  0.50567948  0.90918906  0.98159834     0.07200
Br1842     Br  0.43004138  0.82556474  0.96151140    -0.03400
C1843       C  0.48974002  0.06807201  0.63469237    -0.10000
C1844       C  0.52091617  0.06315388  0.65333131     0.06200
C1845       C  0.56125249  0.06810331  0.64078956    -0.03800
C1846       C  0.57074026  0.08057717  0.61080269    -0.08200
C1847       C  0.54062062  0.08822619  0.59283453     0.05300
C1848       C  0.49938230  0.08102332  0.60503241    -0.03300
Br1849     Br  0.45717255  0.09342145  0.58354098    -0.03000
H1850       H  0.45840573  0.06442974  0.64372460     0.09200
H1851       H  0.60230823  0.08508733  0.60158450     0.07200
Br1852     Br  0.60593221  0.06164843  0.66370582    -0.03400
C1853       C  0.57063779  0.04132667  0.88691499    -0.10000
C1854       C  0.54393850  0.05072231  0.90640787     0.06200
C1855       C  0.51226573  0.06222677  0.89434706    -0.03800
C1856       C  0.51188536  0.06956140  0.86388710    -0.08200
C1857       C  0.54161807  0.06439810  0.84453160     0.05300
C1858       C  0.56881425  0.04677755  0.85619816    -0.03300
Br1859     Br  0.60476289  0.03028964  0.83197591    -0.03000
H1860       H  0.59420463  0.03099703  0.89573370     0.09200
H1861       H  0.48879430  0.08073579  0.85541637     0.07200
Br1862     Br  0.47129844  0.07245349  0.91809259    -0.03400
C1863       C  0.70027679  0.25982671  0.47349429    -0.10000
C1864       C  0.71548175  0.21873766  0.96060937     0.06200
C1865       C  0.76017843  0.22823400  0.96756207    -0.03800
C1866       C  0.79200102  0.27190916  0.97749915    -0.08200
C1867       C  0.77840821  0.31047993  0.48682100     0.05300
C1868       C  0.73284930  0.30062874  0.48524908    -0.03300
Br1869     Br  0.71080437  0.33922224  0.50037058    -0.03000
H1870       H  0.66574432  0.25410633  0.47282804     0.09200
H1871       H  0.82598194  0.27889450  0.98346830     0.07200
Br1872     Br  0.77882713  0.18294704  0.96518230    -0.03400
loop_ 
_geom_bond_atom_site_label_1 
_geom_bond_atom_site_label_2 
_geom_bond_distance 
_geom_bond_site_symmetry_2 
_ccdc_geom_bond_type 
O1          Cr19   1.958       .  S
O1            C9   1.259       .  A
O2          Cr19   2.015       .  S
O2            C3   1.267       .  A
C3            O4   1.290       .  A
C3          C878   1.529       .  S
O4         Cr956   2.054   1_554  S
O5          Cr20   2.128       .  S
O5            C6   1.287   1_545  A
C6            O7   1.233   1_565  A
C6          C901   1.531       .  S
O7          Cr21   1.930       .  S
O8         Cr957   2.025   1_554  S
O8            C9   1.272       .  A
C9          C911   1.479       .  S
O10         Cr19   2.015       .  S
O10          C18   1.263   1_554  A
O11         Cr19   1.942   1_556  S
O11         C948   1.254       .  A
C12          O13   1.280       .  A
C12         O947   1.248       .  A
C12         C928   1.490       .  S
O13         Cr20   2.081       .  S
O14         Cr20   1.951       .  S
O14          C15   1.258       .  A
C15          O16   1.276       .  A
C15         C918   1.483       .  S
O16         Cr21   2.053       .  S
O17        Cr957   1.948       .  S
O17          C18   1.242       .  A
C18         C888   1.463       .  S
Cr19         O22   1.745   1_554  S
Cr20        O940   2.046       .  S
Cr20        O958   1.781       .  S
Cr21        O944   2.029       .  S
Cr21        O953   1.953       .  S
Cr21        O958   1.750       .  S
O22        Cr956   1.785       .  S
O22        Cr957   1.756       .  S
O23         Cr41   2.000       .  S
O23          C31   1.261       .  A
O24         Cr41   1.949       .  S
O24          C25   1.259       .  A
C25          O26   1.270       .  A
C25         C868   1.467       .  S
O26         Cr42   2.025       .  S
O27         Cr42   1.929       .  S
O27          C28   1.253       .  A
C28          O29   1.279       .  A
C28         C908   1.489       .  S
O29         Cr43   2.057       .  S
O30         Cr43   1.956       .  S
O30          C31   1.245       .  A
C31         C851   1.468       .  S
O32         Cr41   1.951       .  S
O32          C40   1.260       .  A
O33         Cr41   2.001       .  S
O33          C34   1.263       .  A
C34          O35   1.291       .  A
C34         C841   1.529       .  S
O35         Cr42   2.048       .  S
O36         Cr42   2.106       .  S
O36          C37   1.276   1_545  A
C37          O38   1.235   1_565  A
C37         C858   1.526       .  S
O38         Cr43   1.933       .  S
O39         Cr43   2.036       .  S
O39          C40   1.276       .  A
C40         C921   1.495       .  S
Cr41         O44   1.746       .  S
Cr42         O44   1.787       .  S
Cr43         O44   1.765       .  S
O45         Cr63   1.958       .  S
O45          C53   1.256       .  A
O46         Cr63   1.991       .  S
O46          C47   1.259       .  A
C47         O984   1.289       .  A
C47         C791   1.525       .  S
O48         Cr64   2.044       .  S
O48         C983   1.289       .  A
O49         Cr64   2.115       .  S
O49          C50   1.281       .  A
C50          O51   1.231       .  A
C50         C811   1.526       .  S
O51         Cr65   1.932       .  S
O52       Cr1001   2.054       .  S
O52          C53   1.280       .  A
C53         C818   1.506       .  S
O54         Cr63   2.010       .  S
O54          C62   1.260   1_554  A
O55         Cr63   1.954   1_556  S
O55         C992   1.260       .  A
C56          O57   1.276       .  A
C56         O991   1.259       .  A
C56         C891   1.472       .  S
O57         Cr64   2.044       .  S
O58         Cr64   1.943       .  S
O58          C59   1.254       .  A
C59          O60   1.277       .  A
C59         C828   1.475       .  S
O60         Cr65   2.050       .  S
O61       Cr1001   1.944   1_556  S
O61          C62   1.240       .  A
C62         C798   1.451       .  S
Cr63       O1002   1.751       .  S
Cr64         O66   1.788       .  S
Cr65        O988   2.026       .  S
Cr65        O997   1.940       .  S
Cr65         O66   1.759       .  S
O66        Cr999   1.750       .  S
O67         Cr85   2.004       .  S
O67          C75   1.265       .  A
O68         Cr85   1.965       .  S
O68          C69   1.251       .  A
C69          O70   1.254       .  A
C69         C778   1.450       .  S
O70         Cr86   1.997       .  S
O71         Cr86   1.957       .  S
O71          C72   1.260       .  A
C72          O73   1.282       .  A
C72         C821   1.486       .  S
O73         Cr87   2.056       .  S
O74         Cr87   1.938       .  S
O74          C75   1.245       .  A
C75         C871   1.466       .  S
O76         Cr85   1.974       .  S
O76          C84   1.257       .  A
O77         Cr85   2.001       .  S
O77          C78   1.270       .  A
C78          O79   1.287       .  A
C78         C758   1.503       .  S
O79         Cr86   2.027       .  S
O80         Cr86   2.073       .  S
O80          C81   1.264       .  A
C81          O82   1.231       .  A
C81         C768   1.504       .  S
O82         Cr87   1.934       .  S
O83         Cr87   2.015       .  S
O83          C84   1.269       .  A
C84         C831   1.503       .  S
Cr85         O88   1.759       .  S
Cr86         O88   1.809       .  S
Cr87         O88   1.771       .  S
O89        Cr107   1.998       .  S
O89          C97   1.259       .  A
O90        Cr107   1.955       .  S
O90          C91   1.259       .  A
C91          O92   1.273       .  A
C91         C848   1.473       .  S
O92        Cr108   2.030       .  S
O93        Cr108   1.936       .  S
O93          C94   1.252       .  A
C94          O95   1.273       .  A
C94         C748   1.462       .  S
O95        Cr109   2.032       .  S
O96        Cr109   1.937       .  S
O96          C97   1.239       .  A
C97         C781   1.444       .  S
O98        Cr107   1.951       .  S
O98         C106   1.257       .  A
O99        Cr107   1.992       .  S
O99         C100   1.264       .  A
C100        O101   1.287       .  A
C100        C721   1.509       .  S
O101       Cr108   2.038       .  S
O102       Cr108   2.104       .  S
O102        C103   1.278       .  A
C103        O104   1.238       .  A
C103        C728   1.523   1_655  S
O104       Cr109   1.938       .  S
O105       Cr109   2.032       .  S
O105        C106   1.275       .  A
C106        C741   1.486       .  S
Cr107       O110   1.751       .  S
Cr108       O110   1.786       .  S
Cr109       O110   1.762       .  S
O111       Cr129   1.939       .  S
O111        C119   1.253       .  A
O112       Cr129   2.016       .  S
O112        C113   1.269       .  A
C113        O114   1.288       .  A
C113        C701   1.517       .  S
O114      Cr1066   2.039   1_554  S
O115       Cr130   2.087       .  S
O115        C116   1.278       .  A
C116        O117   1.243       .  A
C116        C711   1.508   1_655  S
O117       Cr131   1.948       .  S
O118      Cr1067   2.027       .  S
O118        C119   1.275       .  A
C119        C751   1.488       .  S
O120       Cr129   2.008       .  S
O120        C128   1.262   1_554  A
O121       Cr129   1.957   1_556  S
O121       C1058   1.250       .  A
C122        O123   1.269       .  A
C122       O1057   1.256       .  A
C122        C801   1.457       .  S
O123       Cr130   2.024       .  S
O124       Cr130   1.959       .  S
O124        C125   1.257       .  A
C125        O126   1.271       .  A
C125        C738   1.475       .  S
O126       Cr131   2.018       .  S
O127      Cr1067   1.957   1_556  S
O127        C128   1.246       .  A
C128        C931   1.476       .  S
Cr129       O132   1.753       .  S
Cr130      O1050   2.041       .  S
Cr130      O1068   1.787       .  S
Cr131      O1054   2.015       .  S
Cr131      O1063   1.963       .  S
Cr131      O1068   1.768       .  S
O132      Cr1066   1.795   1_554  S
O132      Cr1067   1.773       .  S
O133       Cr151   1.959       .  S
O133        C141   1.258       .  A
O134       Cr151   2.023       .  S
O134        C135   1.272       .  A
C135        O136   1.282       .  A
C135        C861   1.510       .  S
O136       Cr152   2.019       .  S
O137       Cr152   2.089       .  S
O137        C138   1.274       .  A
C138        O139   1.237       .  A
C138        C658   1.505       .  S
O139       Cr153   1.940       .  S
O140       Cr153   2.035       .  S
O140        C141   1.272       .  A
C141        C668   1.492       .  S
O142       Cr151   2.026       .  S
O142        C150   1.268       .  A
O143       Cr151   1.958       .  S
O143        C144   1.254       .  A
C144        O145   1.265       .  A
C144        C688   1.452       .  S
O145       Cr152   2.019       .  S
O146       Cr152   1.944       .  S
O146        C147   1.254       .  A
C147        O148   1.277       .  A
C147        C681   1.477       .  S
O148       Cr153   2.047       .  S
O149       Cr153   1.942       .  S
O149        C150   1.245       .  A
C150        C651   1.468       .  S
Cr151       O154   1.753       .  S
Cr152       O154   1.797       .  S
Cr153       O154   1.767       .  S
O155       Cr173   1.987       .  S
O155        C163   1.258       .  A
O156       Cr173   1.944       .  S
O156        C157   1.241       .  A
C157        O158   1.268       .  A
C157        C638   1.482       .  S
O158       Cr174   2.061       .  S
O159       Cr174   1.946       .  S
O159        C160   1.260       .  A
C160        O161   1.284       .  A
C160        C671   1.492       .  S
O161       Cr175   2.065       .  S
O162       Cr175   1.969       .  S
O162        C163   1.248       .  A
C163        C618   1.469       .  S
O164       Cr173   1.950       .  S
O164        C172   1.257       .  A
O165       Cr173   2.023       .  S
O165        C166   1.269       .  A
C166        O167   1.289       .  A
C166        C808   1.524       .  S
O167       Cr174   2.036       .  S
O168       Cr174   2.104       .  S
O168        C169   1.273       .  A
C169        O170   1.232       .  A
C169        C628   1.529       .  S
O170       Cr175   1.932       .  S
O171       Cr175   2.026       .  S
O171        C172   1.277       .  A
C172       C1614   1.494       .  S
Cr173       O176   1.737       .  S
Cr174       O176   1.802       .  S
Cr175       O176   1.758       .  S
O177       Cr195   2.002       .  S
O177        C185   1.260       .  A
O178       Cr195   1.957       .  S
O178        C179   1.261       .  A
C179        O180   1.273       .  A
C179        C608   1.463       .  S
O180       Cr196   2.030       .  S
O181       Cr196   1.938       .  S
O181        C182   1.249       .  A
C182        O183   1.271       .  A
C182        C601   1.480       .  S
O183       Cr197   2.039       .  S
O184       Cr197   1.958       .  S
O184        C185   1.246       .  A
C185        C641   1.468       .  S
O186       Cr195   1.948       .  S
O186        C194   1.258       .  A
O187       Cr195   1.989       .  S
O187        C188   1.261       .  A
C188        O189   1.284       .  A
C188        C708   1.499       .  S
O189       Cr196   2.034       .  S
O190       Cr196   2.110       .  S
O190        C191   1.283       .  A
C191        O192   1.237       .  A
C191        C581   1.519       .  S
O192       Cr197   1.934       .  S
O193       Cr197   2.027       .  S
O193        C194   1.275       .  A
C194       C1527   1.481       .  S
Cr195       O198   1.751       .  S
Cr196       O198   1.781       .  S
Cr197       O198   1.763       .  S
O199       Cr217   1.955       .  S
O199        C207   1.255       .  A
O200       Cr217   1.985       .  S
O200        C201   1.261       .  A
C201        O202   1.282       .  A
C201        C771   1.493       .  S
O202       Cr218   2.029       .  S
O203       Cr218   2.132       .  S
O203        C204   1.289       .  A
C204        O205   1.235       .  A
C204        C571   1.536       .  S
O205       Cr219   1.932       .  S
O206       Cr219   2.026       .  S
O206        C207   1.271       .  A
C207        C598   1.475       .  S
O208       Cr217   2.006       .  S
O208        C216   1.263       .  A
O209       Cr217   1.940       .  S
O209        C210   1.255       .  A
C210        O211   1.279       .  A
C210        C648   1.470       .  S
O211       Cr218   2.059       .  S
O212       Cr218   1.942       .  S
O212        C213   1.253       .  A
C213        O214   1.272       .  A
C213        C588   1.478       .  S
O214       Cr219   2.047       .  S
O215       Cr219   1.936       .  S
O215        C216   1.244       .  A
C216        C561   1.450       .  S
Cr217       O220   1.751       .  S
Cr218       O220   1.777       .  S
Cr219       O220   1.754       .  S
O221       Cr239   1.960       .  S
O221        C229   1.258       .  A
O222       Cr239   2.008       .  S
O222        C223   1.267       .  A
C223        O224   1.286       .  A
C223        C731   1.513       .  S
O224       Cr240   2.033       .  S
O225       Cr240   2.118       .  S
O225        C226   1.284       .  A
C226        O227   1.234       .  A
C226        C528   1.523       .  S
O227       Cr241   1.933       .  S
O228       Cr241   2.035       .  S
O228        C229   1.275       .  A
C229        C538   1.487       .  S
O230       Cr239   2.016       .  S
O230        C238   1.264       .  A
O231       Cr239   1.950       .  S
O231        C232   1.257       .  A
C232        O233   1.274       .  A
C232        C558   1.464       .  S
O233       Cr240   2.026       .  S
O234       Cr240   1.940       .  S
O234        C235   1.249       .  A
C235        O236   1.275       .  A
C235        C551   1.476       .  S
O236       Cr241   2.050       .  S
O237       Cr241   1.927       .  S
O237        C238   1.240       .  A
C238        C691   1.447       .  S
Cr239       O242   1.751       .  S
Cr240       O242   1.784       .  S
Cr241       O242   1.757       .  S
O243       Cr261   2.003       .  S
O243        C251   1.262       .  A
O244       Cr261   1.967       .  S
O244        C245   1.263       .  A
C245        O246   1.270       .  A
C245        C621   1.476       .  S
O246       Cr262   2.024       .  S
O247       Cr262   1.949       .  S
O247        C248   1.257       .  A
C248        O249   1.278       .  A
C248        C541   1.488       .  S
O249       Cr263   2.054       .  S
O250       Cr263   1.943       .  S
O250        C251   1.244       .  A
C251        C611   1.456       .  S
O252       Cr261   1.963       .  S
O252        C260   1.257       .  A
O253       Cr261   2.001       .  S
O253        C254   1.262       .  A
C254        O255   1.288       .  A
C254        C898   1.523       .  S
O255       Cr262   2.042       .  S
O256       Cr262   2.090       .  S
O256        C257   1.274       .  A
C257        O258   1.233       .  A
C257        C518   1.525       .  S
O258       Cr263   1.930       .  S
O259       Cr263   2.027       .  S
O259        C260   1.275       .  A
C260       C1484   1.503       .  S
Cr261       O264   1.756       .  S
Cr262       O264   1.783       .  S
Cr263       O264   1.770       .  S
O265       Cr283   1.946       .  S
O265        C273   1.256       .  A
O266       Cr283   2.003       .  S
O266        C267   1.267       .  A
C267        O268   1.289       .  A
C267        C578   1.525       .  S
O268       Cr284   2.045       .  S
O269       Cr284   2.129       .  S
O269        C270   1.286       .  A
C270        O271   1.233       .  A
C270        C838   1.533       .  S
O271       Cr285   1.929       .  S
O272       Cr285   2.042       .  S
O272        C273   1.277       .  A
C273        C488   1.494       .  S
O274       Cr283   2.007       .  S
O274        C282   1.262       .  A
O275       Cr283   1.945       .  S
O275        C276   1.253       .  A
C276        O277   1.278       .  A
C276        C508   1.475       .  S
O277       Cr284   2.059       .  S
O278       Cr284   1.951       .  S
O278        C279   1.258       .  A
C279        O280   1.277       .  A
C279        C501   1.500       .  S
O280       Cr285   2.060       .  S
O281       Cr285   1.939       .  S
O281        C282   1.240       .  A
C282        C481   1.460   1_545  S
Cr283       O286   1.749       .  S
Cr284       O286   1.779       .  S
Cr285       O286   1.752       .  S
O287       Cr305   2.018       .  S
O287        C295   1.266       .  A
O288       Cr305   1.957   1_565  S
O288        C289   1.256       .  A
C289        O290   1.271       .  A
C289        C468   1.458       .  S
O290       Cr306   2.033   1_565  S
O291       Cr306   1.952       .  S
O291        C292   1.254       .  A
C292        O293   1.273       .  A
C292       C1427   1.494   1_554  S
O293       Cr307   2.054       .  S
O294       Cr307   1.933       .  S
O294        C295   1.240       .  A
C295        C461   1.462       .  S
O296       Cr305   1.970       .  S
O296        C304   1.259       .  A
O297       Cr305   2.001   1_565  S
O297        C298   1.265       .  A
C298        O299   1.289       .  A
C298        C531   1.515       .  S
O299       Cr306   2.043   1_565  S
O300       Cr306   2.124       .  S
O300        C301   1.288       .  A
C301        O302   1.234       .  A
C301        C788   1.526       .  S
O302       Cr307   1.926       .  S
O303       Cr307   2.035       .  S
O303        C304   1.274       .  A
C304        C498   1.493       .  S
Cr305       O308   1.752       .  S
Cr306       O308   1.783       .  S
Cr307       O308   1.758       .  S
O309       Cr327   1.943       .  S
O309        C317   1.260       .  A
O310       Cr327   1.989   1_455  S
O310        C311   1.260       .  A
C311        O312   1.284   1_455  A
C311        C521   1.511       .  S
O312       Cr328   2.052       .  S
O313       Cr328   2.094       .  S
O313        C314   1.280       .  A
C314        O315   1.238       .  A
C314        C761   1.509       .  S
O315       Cr329   1.938       .  S
O316       Cr329   2.007       .  S
O316        C317   1.269       .  A
C317        C438   1.466       .  S
O318       Cr327   1.992       .  S
O318        C326   1.258       .  A
O319       Cr327   1.932       .  S
O319        C320   1.258   1_655  A
C320        O321   1.277       .  A
C320        C478   1.462       .  S
O321       Cr328   2.034   1_455  S
O322       Cr328   1.946       .  S
O322        C323   1.255       .  A
C323        O324   1.269       .  A
C323        C451   1.471       .  S
O324       Cr329   2.019       .  S
O325       Cr329   1.957       .  S
O325        C326   1.246       .  A
C326        C428   1.459       .  S
Cr327       O330   1.744       .  S
Cr328       O330   1.777       .  S
Cr329       O330   1.757       .  S
O331       Cr349   2.010       .  S
O331        C339   1.263       .  A
O332       Cr349   1.963       .  S
O332        C333   1.254       .  A
C333        O334   1.270       .  A
C333        C418   1.474       .  S
O334       Cr350   2.041       .  S
O335       Cr350   1.953       .  S
O335        C336   1.259       .  A
C336        O337   1.268       .  A
C336       C1377   1.460   1_554  S
O337       Cr351   2.013       .  S
O338       Cr351   1.925       .  S
O338        C339   1.241       .  A
C339        C471   1.450       .  S
O340       Cr349   1.959       .  S
O340        C348   1.258       .  A
O341       Cr349   2.003       .  S
O341        C342   1.269       .  A
C342        O343   1.284       .  A
C342        C661   1.498       .  S
O343       Cr350   2.022       .  S
O344       Cr350   2.103       .  S
O344        C345   1.279       .  A
C345        O346   1.241       .  A
C345        C698   1.527       .  S
O346       Cr351   1.943       .  S
O347       Cr351   2.002       .  S
O347        C348   1.265       .  A
C348        C448   1.482       .  S
Cr349       O352   1.760       .  S
Cr350       O352   1.791       .  S
Cr351       O352   1.769       .  S
O353       Cr371   1.960       .  S
O353        C361   1.257       .  A
O354       Cr371   2.023   1_565  S
O354        C355   1.268       .  A
C355        O356   1.282       .  A
C355        C631   1.511       .  S
O356       Cr372   2.029   1_565  S
O357       Cr372   2.109       .  S
O357        C358   1.278       .  A
C358        O359   1.232       .  A
C358        C718   1.517       .  S
O359       Cr373   1.934       .  S
O360       Cr373   2.018       .  S
O360        C361   1.269       .  A
C361        C398   1.490       .  S
O362       Cr371   2.025       .  S
O362        C370   1.270       .  A
O363       Cr371   1.951   1_565  S
O363        C364   1.250       .  A
C364        O365   1.271       .  A
C364        C431   1.458       .  S
O365       Cr372   2.042   1_565  S
O366       Cr372   1.947       .  S
O366        C367   1.255       .  A
C367        O368   1.275       .  A
C367        C408   1.479       .  S
O368       Cr373   2.057       .  S
O369       Cr373   1.940       .  S
O369        C370   1.245       .  A
C370        C511   1.468       .  S
Cr371       O374   1.747       .  S
Cr372       O374   1.793       .  S
Cr373       O374   1.760       .  S
O375       Cr393   2.009       .  S
O375        C383   1.261       .  A
O376       Cr393   1.943       .  S
O376        C377   1.259       .  A
C377        O378   1.276   1_655  A
C377        C458   1.477   1_655  S
O378       Cr394   2.040   1_455  S
O379       Cr394   1.944       .  S
O379        C380   1.254       .  A
C380        O381   1.273       .  A
C380       C1337   1.476   1_554  S
O381       Cr395   2.048       .  S
O382       Cr395   1.952       .  S
O382        C383   1.245       .  A
C383        C421   1.463   1_545  S
O384       Cr393   1.965       .  S
O384        C392   1.260       .  A
O385       Cr393   2.006   1_455  S
O385        C386   1.262       .  A
C386        O387   1.289   1_455  A
C386        C568   1.530       .  S
O387       Cr394   2.054       .  S
O388       Cr394   2.117       .  S
O388        C389   1.282       .  A
C389        O390   1.236       .  A
C389        C881   1.532       .  S
O390       Cr395   1.935       .  S
O391       Cr395   2.024       .  S
O391        C392   1.275       .  A
C392        C411   1.486       .  S
Cr393       O396   1.752       .  S
Cr394       O396   1.787       .  S
Cr395       O396   1.763       .  S
C397        C398   1.412       .  A
C397        C402   1.402       .  A
C397        H404   1.083       .  S
C398        C399   1.410       .  A
C399        C400   1.399       .  A
C399       Br406   1.918       .  S
C400        C401   1.409       .  A
C400        H405   1.084       .  S
C401       C1316   1.483       .  S
C401        C402   1.407       .  A
C402       Br403   1.919       .  S
C407        C408   1.401       .  A
C407        C412   1.403       .  A
C407        H414   1.083       .  S
C408        C409   1.414       .  A
C409        C410   1.397       .  A
C409       Br416   1.923       .  S
C410        C411   1.402       .  A
C410        H415   1.083       .  S
C411        C412   1.419       .  A
C412       Br413   1.922       .  S
C417        C418   1.408       .  A
C417        C422   1.401       .  A
C417        H424   1.070       .  S
C418        C419   1.406       .  A
C419        C420   1.397       .  A
C419       Br426   1.918       .  S
C420        C421   1.400       .  A
C420        H425   1.069       .  S
C421        C422   1.400       .  A
C422       Br423   1.918       .  S
C427        C428   1.410       .  A
C427        C432   1.401       .  A
C427        H434   1.071       .  S
C428        C429   1.401       .  A
C429        C430   1.380       .  A
C429       Br436   1.926       .  S
C430        C431   1.404       .  A
C430        H435   1.072       .  S
C431        C432   1.399       .  A
C432       Br433   1.915       .  S
C437        C438   1.407       .  A
C437        C442   1.389       .  A
C437        H444   1.084       .  S
C438        C439   1.411       .  A
C439        C440   1.390       .  A
C439       Br446   1.924       .  S
C440        C441   1.404       .  A
C440        H445   1.084       .  S
C441       C1272   1.460       .  S
C441        C442   1.404       .  A
C442       Br443   1.920       .  S
C447        C448   1.410       .  A
C447        C452   1.396       .  A
C447        H454   1.083       .  S
C448        C449   1.413       .  A
C449        C450   1.395       .  A
C449       Br456   1.921       .  S
C450        C451   1.404       .  A
C450        H455   1.084       .  S
C451        C452   1.405       .  A
C452       Br453   1.915       .  S
C457        C458   1.408       .  A
C457        C462   1.388       .  A
C457        H464   1.068   1_455  S
C458        C459   1.408       .  A
C459        C460   1.400       .  A
C459       Br466   1.920       .  S
C460        C461   1.408       .  A
C460        H465   1.083       .  S
C461        C462   1.399       .  A
C462       Br463   1.915   1_545  S
C467        C468   1.402       .  A
C467        C472   1.390       .  A
C467        H474   1.059       .  S
C468        C469   1.403       .  A
C469        C470   1.397       .  A
C469       Br476   1.916   1_554  S
C470        C471   1.403   1_455  A
C470        H475   1.083   1_455  S
C471        C472   1.398   1_655  A
C472       Br473   1.918       .  S
C477        C478   1.399       .  A
C477        C482   1.395       .  A
C477        H484   1.084       .  S
C478        C479   1.410       .  A
C479        C480   1.389       .  A
C479       Br486   1.921   1_455  S
C480        C481   1.395       .  A
C480        H485   1.081       .  S
C481        C482   1.412       .  A
C482       Br483   1.911       .  S
C487        C488   1.414       .  A
C487        C492   1.401       .  A
C487        H494   1.083       .  S
C488        C489   1.409       .  A
C489        C490   1.401       .  A
C489       Br496   1.915       .  S
C490        C491   1.411       .  A
C490        H495   1.084       .  S
C491       C1228   1.486       .  S
C491        C492   1.406       .  A
C492       Br493   1.919       .  S
C497        C498   1.411       .  A
C497        C502   1.407       .  A
C497        H504   1.084       .  S
C498        C499   1.407       .  A
C499        C500   1.401       .  A
C499       Br506   1.916       .  S
C500        C501   1.414       .  A
C500        H505   1.083       .  S
C501        C502   1.413       .  A
C502       Br503   1.919       .  S
C507        C508   1.405       .  A
C507        C512   1.403       .  A
C507        H514   1.083       .  S
C508        C509   1.412       .  A
C509        C510   1.395   1_455  A
C509       Br516   1.920       .  S
C510        C511   1.399       .  A
C510        H515   1.084       .  S
C511        C512   1.410   1_655  A
C512       Br513   1.915       .  S
C517        C518   1.425       .  A
C517        C522   1.417       .  A
C517        H524   1.083       .  S
C518        C519   1.408       .  A
C519        C520   1.412       .  A
C519       Br526   1.911       .  S
C520        C521   1.417       .  A
C520        H525   1.083       .  S
C521        C522   1.407       .  A
C522       Br523   1.917       .  S
C527        C528   1.410       .  A
C527        C532   1.419       .  A
C527        H534   1.081       .  S
C528        C529   1.423       .  A
C529        C530   1.416       .  A
C529       Br536   1.922       .  S
C530        C531   1.410       .  A
C530        H535   1.083       .  S
C531        C532   1.420       .  A
C532       Br533   1.915       .  S
C537        C538   1.401       .  A
C537        C542   1.400       .  A
C537        H544   1.083       .  S
C538        C539   1.418       .  A
C539        C540   1.402       .  A
C539       Br546   1.922       .  S
C540        C541   1.402       .  A
C540        H545   1.083       .  S
C541        C542   1.420       .  A
C542       Br543   1.924       .  S
C547        C548   1.408       .  A
C547        C552   1.403       .  A
C547        H554   1.083       .  S
C548       C1196   1.501   1_554  S
C548        C549   1.426       .  A
C549        C550   1.403       .  A
C549       Br556   1.924       .  S
C550        C551   1.397       .  A
C550        H555   1.084       .  S
C551        C552   1.411       .  A
C552       Br553   1.920       .  S
C557        C558   1.402       .  A
C557        C562   1.392       .  A
C557        H564   1.081       .  S
C558        C559   1.410       .  A
C559        C560   1.389       .  A
C559       Br566   1.915       .  S
C560        C561   1.395       .  A
C560        H565   1.083       .  S
C561        C562   1.405       .  A
C562       Br563   1.919       .  S
C567        C568   1.395       .  A
C567        C572   1.414       .  A
C567        H574   1.084       .  S
C568        C569   1.436       .  A
C569        C570   1.420       .  A
C569       Br576   1.912       .  S
C570        C571   1.400       .  A
C570        H575   1.082       .  S
C571        C572   1.441       .  A
C572       Br573   1.916       .  S
C577        C578   1.427       .  A
C577        C582   1.415       .  A
C577        H584   1.082       .  S
C578        C579   1.410       .  A
C579        C580   1.412       .  A
C579       Br586   1.917       .  S
C580        C581   1.420       .  A
C580        H585   1.081       .  S
C581        C582   1.401       .  A
C582       Br583   1.910       .  S
C587        C588   1.411       .  A
C587        C592   1.400       .  A
C587        H594   1.084       .  S
C588        C589   1.404       .  A
C589        C590   1.395       .  A
C589       Br596   1.920       .  S
C590        C591   1.412       .  A
C590        H595   1.084       .  S
C591       C1130   1.485   1_554  S
C591        C592   1.410       .  A
C592       Br593   1.922       .  S
C597        C598   1.398       .  A
C597        C602   1.394       .  A
C597        H604   1.084       .  S
C598        C599   1.415       .  A
C599        C600   1.397       .  A
C599       Br606   1.920       .  S
C600        C601   1.402       .  A
C600        H605   1.084       .  S
C601        C602   1.421       .  A
C602       Br603   1.926       .  S
C607        C608   1.402       .  A
C607        C612   1.394       .  A
C607        H614   1.078       .  S
C608        C609   1.407       .  A
C609        C610   1.394       .  A
C609       Br616   1.919       .  S
C610        C611   1.400       .  A
C610        H615   1.084       .  S
C611        C612   1.406       .  A
C612       Br613   1.921       .  S
C617        C618   1.400       .  A
C617        C622   1.402       .  A
C617        H624   1.084       .  S
C618        C619   1.406       .  A
C619        C620   1.392       .  A
C619       Br626   1.913       .  S
C620        C621   1.402       .  A
C620        H625   1.084       .  S
C621        C622   1.415       .  A
C622       Br623   1.920       .  S
C627        C628   1.425       .  A
C627        C632   1.414       .  A
C627        H634   1.083       .  S
C628        C629   1.416       .  A
C629        C630   1.418       .  A
C629       Br636   1.918       .  S
C630        C631   1.417       .  A
C630        H635   1.081       .  S
C631        C632   1.403       .  A
C632       Br633   1.916       .  S
C637        C638   1.411       .  A
C637        C642   1.380       .  A
C637        H644   1.081       .  S
C638        C639   1.409       .  A
C639        C640   1.407       .  A
C639       Br646   1.916       .  S
C640        C641   1.411       .  A
C640        H645   1.083       .  S
C641        C642   1.403       .  A
C642       Br643   1.925       .  S
C647        C648   1.403       .  A
C647        C652   1.400       .  A
C647        H654   1.078       .  S
C648        C649   1.409       .  A
C649        C650   1.398       .  A
C649       Br656   1.919       .  S
C650        C651   1.401       .  A
C650        H655   1.084       .  S
C651        C652   1.409       .  A
C652       Br653   1.918       .  S
C657        C658   1.410       .  A
C657        C662   1.412       .  A
C657        H664   1.081       .  S
C658        C659   1.414       .  A
C659        C660   1.409       .  A
C659       Br666   1.919       .  S
C660        C661   1.409       .  A
C660        H665   1.084       .  S
C661        C662   1.415       .  A
C662       Br663   1.918       .  S
C667        C668   1.409       .  A
C667        C672   1.400       .  A
C667        H674   1.081       .  S
C668        C669   1.409       .  A
C669        C670   1.405       .  A
C669       Br676   1.917       .  S
C670        C671   1.414       .  A
C670        H675   1.083       .  S
C671        C672   1.408       .  A
C672       Br673   1.919       .  S
C677        C678   1.404       .  A
C677        C682   1.401       .  A
C677        H684   1.083       .  S
C678       C1108   1.491   1_554  S
C678        C679   1.424       .  A
C679        C680   1.400       .  A
C679      Br1622   1.921       .  S
C680        C681   1.396       .  A
C680        H685   1.084       .  S
C681        C682   1.414       .  A
C682       Br683   1.921       .  S
Br686      C1615   1.926       .  S
C687        C688   1.404       .  A
C687        C692   1.386       .  A
C687        H694   1.071       .  S
C688        C689   1.399       .  A
C689        C690   1.395       .  A
C689       Br696   1.918       .  S
C690        C691   1.405       .  A
C690        H695   1.083       .  S
C691        C692   1.394       .  A
C692       Br693   1.920       .  S
C697        C698   1.411       .  A
C697        C702   1.417       .  A
C697        H704   1.081       .  S
C698        C699   1.422       .  A
C699        C700   1.419       .  A
C699       Br706   1.920       .  S
C700        C701   1.410       .  A
C700        H705   1.083       .  S
C701        C702   1.419       .  A
C702      Br1639   1.916   1_554  S
Br703      C1638   1.919       .  S
C707        C708   1.411       .  A
C707        C712   1.413       .  A
C707        H714   1.083       .  S
C708        C709   1.413       .  A
C709        C710   1.412       .  A
C709       Br716   1.919       .  S
C710        C711   1.409       .  A
C710        H715   1.081   1_455  S
C711        C712   1.415       .  A
C712      Br1649   1.919       .  S
Br713      C1648   1.918       .  S
C717        C718   1.424       .  A
C717        C722   1.409       .  A
C717        H724   1.081       .  S
C718        C719   1.401       .  A
C719        C720   1.414       .  A
C719       Br726   1.910       .  S
C720        C721   1.424       .  A
C720        H725   1.082       .  S
C721        C722   1.403       .  A
C722       Br723   1.917       .  S
C727        C728   1.413       .  A
C727        C732   1.420       .  A
C727        H734   1.079       .  S
C728        C729   1.418       .  A
C729        C730   1.415       .  A
C729       Br736   1.920       .  S
C730        C731   1.411       .  A
C730        H735   1.083       .  S
C731        C732   1.417       .  A
C732       Br733   1.918       .  S
C737        C738   1.398       .  A
C737        C742   1.397       .  A
C737        H744   1.084       .  S
C738        C739   1.412       .  A
C739        C740   1.401       .  A
C739       Br746   1.921       .  S
C740        C741   1.404       .  A
C740        H745   1.083       .  S
C741        C742   1.420       .  A
C742       Br743   1.923       .  S
C747        C748   1.394       .  A
C747        C752   1.395       .  A
C747        H754   1.084       .  S
C748        C749   1.407       .  A
C749        C750   1.399       .  A
C749       Br756   1.919       .  S
C750        C751   1.406       .  A
C750        H755   1.083       .  S
C751        C752   1.426       .  A
C752       Br753   1.927       .  S
C757        C758   1.409       .  A
C757        C762   1.413       .  A
C757        H764   1.083       .  S
C758        C759   1.417       .  A
C759        C760   1.412       .  A
C759       Br766   1.916       .  S
C760        C761   1.407       .  A
C760        H765   1.081       .  S
C761        C762   1.420       .  A
C762       Br763   1.921       .  S
C767        C768   1.408       .  A
C767        C772   1.410       .  A
C767        H774   1.081       .  S
C768        C769   1.417       .  A
C769        C770   1.408       .  A
C769       Br776   1.922       .  S
C770        C771   1.407       .  A
C770        H775   1.081       .  S
C771        C772   1.415       .  A
C772       Br773   1.918       .  S
C777        C778   1.402       .  A
C777        C782   1.383       .  A
C777        H784   1.075       .  S
C778        C779   1.400       .  A
C779        C780   1.395       .  A
C779       Br786   1.916       .  S
C780        C781   1.404       .  A
C780        H785   1.083       .  S
C781        C782   1.396       .  A
C782       Br783   1.922       .  S
C787        C788   1.398       .  A
C787        C792   1.417       .  A
C787        H794   1.083       .  S
C788        C789   1.439       .  A
C789        C790   1.411       .  A
C789       Br796   1.919       .  S
C790        C791   1.395       .  A
C790        H795   1.084       .  S
C791        C792   1.438       .  A
C792       Br793   1.925       .  S
C797        C798   1.402       .  A
C797       C1738   1.397       .  A
C797        H804   1.083       .  S
C798       C1735   1.399   1_556  A
C799        C800   1.393       .  A
C799       C1734   1.401       .  A
C799       Br806   1.920       .  S
C800        C801   1.404       .  A
C800        H805   1.073       .  S
C801        C802   1.404       .  A
C802       C1733   1.393       .  A
C802      Br1739   1.919       .  S
Br803      C1738   1.917       .  S
C807        C808   1.395       .  A
C807        C812   1.410       .  A
C807        H814   1.083       .  S
C808        C809   1.434       .  A
C809        C810   1.417       .  A
C809       Br816   1.915       .  S
C810        C811   1.400       .  A
C810        H815   1.083       .  S
C811        C812   1.437       .  A
C812      Br1749   1.918       .  S
Br813      C1748   1.920   1_554  S
C817        C818   1.408       .  A
C817        C822   1.406       .  A
C817        H824   1.083       .  S
C818        C819   1.429       .  A
C819        C820   1.405       .  A
C819       Br826   1.925       .  S
C820        C821   1.398       .  A
C820        H825   1.084       .  S
C821        C822   1.411       .  A
C822       Br823   1.919       .  S
C827        C828   1.399       .  A
C827        C832   1.402       .  A
C827        H834   1.085       .  S
C828        C829   1.408       .  A
C829        C830   1.406       .  A
C829       Br836   1.919       .  S
C830        C831   1.411       .  A
C830        H835   1.083       .  S
C831        C832   1.424       .  A
C832       Br833   1.924       .  S
C837        C838   1.401       .  A
C837        C842   1.421       .  A
C837        H844   1.083       .  S
C838        C839   1.438       .  A
C839        C840   1.410       .  A
C839       Br846   1.911       .  S
C840        C841   1.394       .  A
C840        H845   1.084       .  S
C841        C842   1.439       .  A
C842       Br843   1.923       .  S
C847        C848   1.404       .  A
C847        C852   1.400       .  A
C847        H854   1.083       .  S
C848        C849   1.407       .  A
C849        C850   1.392       .  A
C849       Br856   1.917       .  S
C850        C851   1.401       .  A
C850        H855   1.084       .  S
C851        C852   1.411       .  A
C852       Br853   1.917       .  S
C857        C858   1.418       .  A
C857        C862   1.410       .  A
C857        H864   1.084       .  S
C858        C859   1.420       .  A
C859        C860   1.421       .  A
C859       Br866   1.917       .  S
C860        C861   1.415       .  A
C860        H865   1.083       .  S
C861        C862   1.405       .  A
C862       Br863   1.912       .  S
C867        C868   1.401       .  A
C867        C872   1.387       .  A
C867        H874   1.084       .  S
C868        C869   1.410       .  A
C869        C870   1.400       .  A
C869       Br876   1.920       .  S
C870        C871   1.405       .  A
C870        H875   1.084       .  S
C871        C872   1.404       .  A
C872       Br873   1.905       .  S
C877        C878   1.426       .  A
C877        C882   1.422       .  A
C877        H884   1.081       .  S
C878        C879   1.406       .  A
C879        C880   1.414       .  A
C879       Br886   1.916       .  S
C880        C881   1.425       .  A
C880        H885   1.082       .  S
C881        C882   1.408       .  A
C882       Br883   1.917       .  S
C887        C892   1.393       .  A
C887       C1824   1.398       .  A
C887        H894   1.083       .  S
C888        C889   1.409       .  A
C888       C1823   1.397       .  A
C889        C890   1.400       .  A
C889       Br896   1.919       .  S
C890       C1827   1.405       .  A
C890        H895   1.084       .  S
C891        C892   1.408       .  A
C891       C1826   1.405       .  A
C892       Br893   1.915       .  S
C897        C898   1.393       .  A
C897        C902   1.408       .  A
C897        H904   1.084       .  S
C898        C899   1.437       .  A
C899        C900   1.420       .  A
C899       Br906   1.923       .  S
C900        C901   1.402       .  A
C900        H905   1.084       .  S
C901        C902   1.439       .  A
C902       Br903   1.918   1_565  S
C907        C908   1.414       .  A
C907        C912   1.394       .  A
C907        H914   1.083       .  S
C908        C909   1.409       .  A
C909        C910   1.404       .  A
C909       Br916   1.917       .  S
C910        C911   1.410       .  A
C910        H915   1.084       .  S
C911        C912   1.404       .  A
C912       Br913   1.920       .  S
C917        C918   1.410       .  A
C917        C922   1.404       .  A
C917        H924   1.084       .  S
C918        C919   1.405       .  A
C919        C920   1.399       .  A
C919       Br926   1.919       .  S
C920        C921   1.413       .  A
C920        H925   1.083       .  S
C921        C922   1.412       .  A
C922       Br923   1.917       .  S
C927        C932   1.386       .  A
C927       C1864   1.407       .  A
C927        H934   1.084       .  S
C928        C929   1.410       .  A
C928       C1863   1.412       .  A
C929        C930   1.410       .  A
C929       Br936   1.917       .  S
C930       C1867   1.413       .  A
C930        H935   1.083       .  S
C931        C932   1.405       .  A
C931       C1866   1.411       .  A
C932       Br933   1.918       .  S
O937       Cr955   1.957       .  S
O937        C945   1.259       .  A
O938       Cr955   2.016       .  S
O938        C939   1.267       .  A
C939        O940   1.287       .  A
C939       C1814   1.520       .  S
O941       Cr956   2.126       .  S
O941        C942   1.285   1_546  A
C942        O943   1.233   1_565  A
C942       C1837   1.534   1_554  S
O943       Cr957   1.930   1_554  S
O944        C945   1.275       .  A
C945       C1847   1.482       .  S
O946       Cr955   2.010       .  S
O946        C954   1.261       .  A
O947       Cr955   1.942       .  S
C948        O949   1.277       .  A
C948       C1864   1.484       .  S
O949       Cr956   2.062       .  S
O950       Cr956   1.955       .  S
O950        C951   1.258       .  A
C951        O952   1.275       .  A
C951       C1854   1.484       .  S
O952       Cr957   2.048       .  S
O953        C954   1.243       .  A
C954       C1824   1.463       .  S
Cr955       O958   1.740       .  S
O959       Cr977   2.000       .  S
O959        C967   1.262       .  A
O960       Cr977   1.944       .  S
O960        C961   1.255       .  A
C961        O962   1.275       .  A
C961       C1804   1.480       .  S
O962       Cr978   2.050       .  S
O963       Cr978   1.930       .  S
O963        C964   1.253       .  A
C964        O965   1.280       .  A
C964       C1844   1.488       .  S
O965       Cr979   2.069       .  S
O966       Cr979   1.958       .  S
O966        C967   1.247       .  A
C967       C1787   1.462       .  S
O968       Cr977   1.950       .  S
O968        C976   1.259       .  A
O969       Cr977   2.007       .  S
O969        C970   1.263       .  A
C970        O971   1.288       .  A
C970       C1777   1.524       .  S
O971       Cr978   2.040       .  S
O972       Cr978   2.121       .  S
O972        C973   1.281   1_545  A
C973        O974   1.232   1_565  A
C973       C1794   1.529       .  S
O974       Cr979   1.933       .  S
O975       Cr979   2.034       .  S
O975        C976   1.275       .  A
C976       C1857   1.491       .  S
Cr977       O980   1.739       .  S
Cr978       O980   1.782       .  S
Cr979       O980   1.759       .  S
O981       Cr999   1.956       .  S
O981        C989   1.256       .  A
O982       Cr999   1.993       .  S
O982        C983   1.261       .  A
C983       C1727   1.522       .  S
O984      Cr1000   2.050   1_554  S
O985      Cr1000   2.121       .  S
O985        C986   1.285   1_556  A
C986        O987   1.234       .  A
C986       C1747   1.534   1_554  S
O987      Cr1001   1.928       .  S
O988        C989   1.273       .  A
C989       C1754   1.484       .  S
O990       Cr999   2.009       .  S
O990        C998   1.261       .  A
O991       Cr999   1.954       .  S
C992        O993   1.278       .  A
C992       C1827   1.471       .  S
O993      Cr1000   2.045       .  S
O994      Cr1000   1.943       .  S
O994        C995   1.254       .  A
C995        O996   1.276       .  A
C995       C1764   1.484       .  S
O996      Cr1001   2.058   1_556  S
O997        C998   1.242       .  A
C998       C1734   1.452       .  S
Cr1000     O1002   1.781   1_556  S
Cr1001     O1002   1.754       .  S
O1003     Cr1021   2.008       .  S
O1003      C1011   1.263       .  A
O1004     Cr1021   1.958       .  S
O1004      C1005   1.255       .  A
C1005      O1006   1.261       .  A
C1005      C1714   1.444       .  S
O1006     Cr1022   2.004       .  S
O1007     Cr1022   1.944       .  S
O1007      C1008   1.253       .  A
C1008      O1009   1.274       .  A
C1008      C1757   1.477       .  S
O1009     Cr1023   2.039       .  S
O1010     Cr1023   1.944       .  S
O1010      C1011   1.246       .  A
C1011      C1807   1.468       .  S
O1012     Cr1021   1.960       .  S
O1012      C1020   1.257       .  A
O1013     Cr1021   1.984       .  S
O1013      C1014   1.263       .  A
C1014      O1015   1.289       .  A
C1014      C1694   1.507       .  S
O1015     Cr1022   2.037       .  S
O1016     Cr1022   2.097       .  S
O1016      C1017   1.275       .  A
C1017      O1018   1.236       .  A
C1017      C1704   1.512       .  S
O1018     Cr1023   1.934       .  S
O1019     Cr1023   2.020       .  S
O1019      C1020   1.270       .  A
C1020      C1767   1.487       .  S
Cr1021     O1024   1.753       .  S
Cr1022     O1024   1.797       .  S
Cr1023     O1024   1.767       .  S
O1025     Cr1043   1.993       .  S
O1025      C1033   1.258       .  A
O1026     Cr1043   1.954       .  S
O1026      C1027   1.260       .  A
C1027      O1028   1.273       .  A
C1027      C1784   1.471       .  S
O1028     Cr1044   2.031       .  S
O1029     Cr1044   1.926       .  S
O1029      C1030   1.247       .  A
C1030      O1031   1.275       .  A
C1030      C1684   1.476       .  S
O1031     Cr1045   2.042       .  S
O1032     Cr1045   1.938       .  S
O1032      C1033   1.240       .  A
C1033      C1717   1.441       .  S
O1034     Cr1043   1.943       .  S
O1034      C1042   1.255       .  A
O1035     Cr1043   1.976       .  S
O1035      C1036   1.261       .  A
C1036      O1037   1.289       .  A
C1036      C1657   1.509       .  S
O1037     Cr1044   2.041       .  S
O1038     Cr1044   2.120       .  S
O1038      C1039   1.282       .  A
C1039      O1040   1.237       .  A
C1039      C1664   1.532   1_655  S
O1040     Cr1045   1.935       .  S
O1041     Cr1045   2.037       .  S
O1041      C1042   1.277       .  A
C1042      C1677   1.481       .  S
Cr1043     O1046   1.747       .  S
Cr1044     O1046   1.779       .  S
Cr1045     O1046   1.758       .  S
O1047     Cr1065   1.949       .  S
O1047      C1055   1.256       .  A
O1048     Cr1065   2.002       .  S
O1048      C1049   1.264       .  A
C1049      O1050   1.285       .  A
C1049      C1637   1.508       .  S
O1051     Cr1066   2.095       .  S
O1051      C1052   1.277       .  A
C1052      O1053   1.241   1_556  A
C1052      C1647   1.518   1_655  S
O1053     Cr1067   1.946       .  S
O1054      C1055   1.271       .  A
C1055      C1687   1.468       .  S
O1056     Cr1065   2.009       .  S
O1056      C1064   1.262       .  A
O1057     Cr1065   1.954       .  S
C1058      O1059   1.265       .  A
C1058      C1737   1.456       .  S
O1059     Cr1066   2.026       .  S
O1060     Cr1066   1.944       .  S
O1060      C1061   1.255       .  A
C1061      O1062   1.278       .  A
C1061      C1674   1.481       .  S
O1062     Cr1067   2.039   1_556  S
O1063      C1064   1.248       .  A
C1064      C1867   1.476       .  S
Cr1065     O1068   1.752       .  S
O1069     Cr1087   1.947       .  S
O1069      C1077   1.258       .  A
O1070     Cr1087   2.024       .  S
O1070      C1071   1.268       .  A
C1071      O1072   1.283       .  A
C1071      C1797   1.510       .  S
O1072     Cr1088   2.029       .  S
O1073     Cr1088   2.103       .  S
O1073      C1074   1.279       .  A
C1074      O1075   1.238       .  A
C1074      C1594   1.512       .  S
O1075     Cr1089   1.941       .  S
O1076     Cr1089   2.035       .  S
O1076      C1077   1.274       .  A
C1077      C1604   1.489       .  S
O1078     Cr1087   2.020       .  S
O1078      C1086   1.264       .  A
O1079     Cr1087   1.950       .  S
O1079      C1080   1.251       .  A
C1080      O1081   1.271       .  A
C1080      C1624   1.455       .  S
O1081     Cr1088   2.037       .  S
O1082     Cr1088   1.935       .  S
O1082      C1083   1.251       .  A
C1083      O1084   1.276       .  A
C1083      C1617   1.467       .  S
O1084     Cr1089   2.041       .  S
O1085     Cr1089   1.950       .  S
O1085      C1086   1.244       .  A
C1086      C1587   1.464       .  S
Cr1087     O1090   1.750       .  S
Cr1088     O1090   1.792       .  S
Cr1089     O1090   1.759       .  S
O1091     Cr1109   1.997       .  S
O1091      C1099   1.259       .  A
O1092     Cr1109   1.942       .  S
O1092      C1093   1.239       .  A
C1093      O1094   1.271       .  A
C1093      C1574   1.484       .  S
O1094     Cr1110   2.072       .  S
O1095     Cr1110   1.951       .  S
O1095      C1096   1.260       .  A
C1096      O1097   1.279       .  A
C1096      C1607   1.483       .  S
O1097     Cr1111   2.054       .  S
O1098     Cr1111   1.972       .  S
O1098      C1099   1.249       .  A
C1099      C1554   1.474       .  S
O1100     Cr1109   1.957       .  S
O1100      C1108   1.259       .  A
O1101     Cr1109   2.025       .  S
O1101      C1102   1.269       .  A
C1102      O1103   1.289       .  A
C1102      C1744   1.531       .  S
O1103     Cr1110   2.043       .  S
O1104     Cr1110   2.111       .  S
O1104      C1105   1.278       .  A
C1105      O1106   1.234       .  A
C1105      C1564   1.528       .  S
O1106     Cr1111   1.934       .  S
O1107     Cr1111   2.024       .  S
O1107      C1108   1.276       .  A
Cr1109     O1112   1.736       .  S
Cr1110     O1112   1.800       .  S
Cr1111     O1112   1.757       .  S
O1113     Cr1131   2.006       .  S
O1113      C1121   1.262       .  A
O1114     Cr1131   1.951       .  S
O1114      C1115   1.257       .  A
C1115      O1116   1.273       .  A
C1115      C1544   1.463       .  S
O1116     Cr1132   2.035       .  S
O1117     Cr1132   1.934       .  S
O1117      C1118   1.249       .  A
C1118      O1119   1.273       .  A
C1118      C1537   1.477       .  S
O1119     Cr1133   2.044       .  S
O1120     Cr1133   1.959       .  S
O1120      C1121   1.247       .  A
C1121      C1577   1.472       .  S
O1122     Cr1131   1.943       .  S
O1122      C1130   1.258       .  A
O1123     Cr1131   2.005       .  S
O1123      C1124   1.265       .  A
C1124      O1125   1.282       .  A
C1124      C1644   1.504       .  S
O1125     Cr1132   2.027       .  S
O1126     Cr1132   2.106       .  S
O1126      C1127   1.282       .  A
C1127      O1128   1.238       .  A
C1127      C1517   1.514       .  S
O1128     Cr1133   1.934       .  S
O1129     Cr1133   2.033       .  S
O1129      C1130   1.275       .  A
Cr1131     O1134   1.747       .  S
Cr1132     O1134   1.780       .  S
Cr1133     O1134   1.765       .  S
O1135     Cr1153   1.947       .  S
O1135      C1143   1.255       .  A
O1136     Cr1153   1.986       .  S
O1136      C1137   1.262       .  A
C1137      O1138   1.286       .  A
C1137      C1707   1.502       .  S
O1138     Cr1154   2.036       .  S
O1139     Cr1154   2.130       .  S
O1139      C1140   1.288       .  A
C1140      O1141   1.238       .  A
C1140      C1507   1.536       .  S
O1141     Cr1155   1.934       .  S
O1142     Cr1155   2.029       .  S
O1142      C1143   1.273       .  A
C1143      C1534   1.479       .  S
O1144     Cr1153   1.995       .  S
O1144      C1152   1.259       .  A
O1145     Cr1153   1.956       .  S
O1145      C1146   1.255       .  A
C1146      O1147   1.275       .  A
C1146      C1584   1.467       .  S
O1147     Cr1154   2.050       .  S
O1148     Cr1154   1.940       .  S
O1148      C1149   1.254       .  A
C1149      O1150   1.272       .  A
C1149      C1524   1.480       .  S
O1150     Cr1155   2.046       .  S
O1151     Cr1155   1.937       .  S
O1151      C1152   1.243       .  A
C1152      C1497   1.448       .  S
Cr1153     O1156   1.755       .  S
Cr1154     O1156   1.779       .  S
Cr1155     O1156   1.761       .  S
O1157     Cr1175   1.959       .  S
O1157      C1165   1.259       .  A
O1158     Cr1175   1.999       .  S
O1158      C1159   1.263       .  A
C1159      O1160   1.289       .  A
C1159      C1667   1.521       .  S
O1160     Cr1176   2.049       .  S
O1161     Cr1176   2.115       .  S
O1161      C1162   1.284       .  A
C1162      O1163   1.236       .  A
C1162      C1464   1.523       .  S
O1163     Cr1177   1.931       .  S
O1164     Cr1177   2.043       .  S
O1164      C1165   1.278       .  A
C1165      C1474   1.491       .  S
O1166     Cr1175   1.999       .  S
O1166      C1174   1.260       .  A
O1167     Cr1175   1.946       .  S
O1167      C1168   1.258       .  A
C1168      O1169   1.274       .  A
C1168      C1494   1.458       .  S
O1169     Cr1176   2.017       .  S
O1170     Cr1176   1.942       .  S
O1170      C1171   1.250       .  A
C1171      O1172   1.277       .  A
C1171      C1487   1.482       .  S
O1172     Cr1177   2.058       .  S
O1173     Cr1177   1.943       .  S
O1173      C1174   1.245       .  A
C1174      C1627   1.467       .  S
Cr1175     O1178   1.750       .  S
Cr1176     O1178   1.786       .  S
Cr1177     O1178   1.761       .  S
O1179     Cr1197   2.001       .  S
O1179      C1187   1.261       .  A
O1180     Cr1197   1.963       .  S
O1180      C1181   1.261       .  A
C1181      O1182   1.268       .  A
C1181      C1557   1.476       .  S
O1182     Cr1198   2.025       .  S
O1183     Cr1198   1.964       .  S
O1183      C1184   1.261       .  A
C1184      O1185   1.276       .  A
C1184      C1477   1.489       .  S
O1185     Cr1199   2.045       .  S
O1186     Cr1199   1.946       .  S
O1186      C1187   1.244       .  A
C1187      C1547   1.459       .  S
O1188     Cr1197   1.966       .  S
O1188      C1196   1.258       .  A
O1189     Cr1197   1.997       .  S
O1189      C1190   1.261       .  A
C1190      O1191   1.290       .  A
C1190      C1834   1.527       .  S
O1191     Cr1198   2.051       .  S
O1192     Cr1198   2.087       .  S
O1192      C1193   1.272       .  A
C1193      O1194   1.235       .  A
C1193      C1454   1.529       .  S
O1194     Cr1199   1.930       .  S
O1195     Cr1199   2.027       .  S
O1195      C1196   1.274       .  A
Cr1197     O1200   1.757       .  S
Cr1198     O1200   1.795       .  S
Cr1199     O1200   1.773       .  S
O1201     Cr1219   1.954       .  S
O1201      C1209   1.257       .  A
O1202     Cr1219   1.998       .  S
O1202      C1203   1.266       .  A
C1203      O1204   1.289       .  A
C1203      C1514   1.524       .  S
O1204     Cr1220   2.045       .  S
O1205     Cr1220   2.125       .  S
O1205      C1206   1.284       .  A
C1206      O1207   1.232       .  A
C1206      C1774   1.529       .  S
O1207     Cr1221   1.931       .  S
O1208     Cr1221   2.043       .  S
O1208      C1209   1.276       .  A
C1209      C1424   1.495       .  S
O1210     Cr1219   2.009       .  S
O1210      C1218   1.263       .  A
O1211     Cr1219   1.948       .  S
O1211      C1212   1.256       .  A
C1212      O1213   1.276       .  A
C1212      C1444   1.471       .  S
O1213     Cr1220   2.047       .  S
O1214     Cr1220   1.952       .  S
O1214      C1215   1.257       .  A
C1215      O1216   1.278       .  A
C1215      C1437   1.502       .  S
O1216     Cr1221   2.061       .  S
O1217     Cr1221   1.938       .  S
O1217      C1218   1.240       .  A
C1218      C1417   1.461   1_545  S
Cr1219     O1222   1.751       .  S
Cr1220     O1222   1.780       .  S
Cr1221     O1222   1.755       .  S
O1223     Cr1241   2.014       .  S
O1223      C1231   1.263       .  A
O1224     Cr1241   1.959   1_565  S
O1224      C1225   1.257       .  A
C1225      O1226   1.273       .  A
C1225      C1404   1.459       .  S
O1226     Cr1242   2.032   1_565  S
O1227     Cr1242   1.940       .  S
O1227      C1228   1.252       .  A
C1228      O1229   1.274       .  A
O1229     Cr1243   2.057       .  S
O1230     Cr1243   1.936       .  S
O1230      C1231   1.241       .  A
C1231      C1397   1.460       .  S
O1232     Cr1241   1.964       .  S
O1232      C1240   1.260       .  A
O1233     Cr1241   2.000   1_565  S
O1233      C1234   1.265       .  A
C1234      O1235   1.288       .  A
C1234      C1467   1.514       .  S
O1235     Cr1242   2.040   1_565  S
O1236     Cr1242   2.121       .  S
O1236      C1237   1.286       .  A
C1237      O1238   1.233       .  A
C1237      C1724   1.523       .  S
O1238     Cr1243   1.924       .  S
O1239     Cr1243   2.038       .  S
O1239      C1240   1.275       .  A
C1240      C1434   1.494       .  S
Cr1241     O1244   1.750       .  S
Cr1242     O1244   1.785       .  S
Cr1243     O1244   1.759       .  S
O1245     Cr1263   1.948       .  S
O1245      C1253   1.261       .  A
O1246     Cr1263   1.993   1_455  S
O1246      C1247   1.260       .  A
C1247      O1248   1.283   1_455  A
C1247      C1457   1.511       .  S
O1248     Cr1264   2.049       .  S
O1249     Cr1264   2.093       .  S
O1249      C1250   1.280       .  A
C1250      O1251   1.239       .  A
C1250      C1697   1.510       .  S
O1251     Cr1265   1.938       .  S
O1252     Cr1265   2.019       .  S
O1252      C1253   1.272       .  A
C1253      C1374   1.477       .  S
O1254     Cr1263   1.997       .  S
O1254      C1262   1.257       .  A
O1255     Cr1263   1.940       .  S
O1255      C1256   1.260   1_655  A
C1256      O1257   1.278       .  A
C1256      C1414   1.463       .  S
O1257     Cr1264   2.033   1_455  S
O1258     Cr1264   1.940       .  S
O1258      C1259   1.253       .  A
C1259      O1260   1.271       .  A
C1259      C1387   1.473       .  S
O1260     Cr1265   2.027       .  S
O1261     Cr1265   1.967       .  S
O1261      C1262   1.248       .  A
C1262      C1364   1.469       .  S
Cr1263     O1266   1.744       .  S
Cr1264     O1266   1.776       .  S
Cr1265     O1266   1.760       .  S
O1267     Cr1285   2.012       .  S
O1267      C1275   1.263       .  A
O1268     Cr1285   1.966       .  S
O1268      C1269   1.258       .  A
C1269      O1270   1.269       .  A
C1269      C1354   1.466       .  S
O1270     Cr1286   2.022       .  S
O1271     Cr1286   1.938       .  S
O1271      C1272   1.254       .  A
C1272      O1273   1.268       .  A
O1273     Cr1287   2.011       .  S
O1274     Cr1287   1.930       .  S
O1274      C1275   1.240       .  A
C1275      C1407   1.451       .  S
O1276     Cr1285   1.959       .  S
O1276      C1284   1.259       .  A
O1277     Cr1285   2.006       .  S
O1277      C1278   1.268       .  A
C1278      O1279   1.286       .  A
C1278      C1597   1.506       .  S
O1279     Cr1286   2.027       .  S
O1280     Cr1286   2.100       .  S
O1280      C1281   1.279       .  A
C1281      O1282   1.241       .  A
C1281      C1634   1.524       .  S
O1282     Cr1287   1.942       .  S
O1283     Cr1287   2.005       .  S
O1283      C1284   1.266       .  A
C1284      C1384   1.482       .  S
Cr1285     O1288   1.757       .  S
Cr1286     O1288   1.787       .  S
Cr1287     O1288   1.768       .  S
O1289     Cr1307   1.961       .  S
O1289      C1297   1.261       .  A
O1290     Cr1307   2.030   1_565  S
O1290      C1291   1.272       .  A
C1291      O1292   1.283       .  A
C1291      C1567   1.512       .  S
O1292     Cr1308   2.027   1_565  S
O1293     Cr1308   2.118       .  S
O1293      C1294   1.280       .  A
C1294      O1295   1.228       .  A
C1294      C1654   1.519       .  S
O1295     Cr1309   1.932       .  S
O1296     Cr1309   2.018       .  S
O1296      C1297   1.271       .  A
C1297      C1334   1.491       .  S
O1298     Cr1307   2.014       .  S
O1298      C1306   1.265       .  A
O1299     Cr1307   1.946       .  S
O1299      C1300   1.247   1_545  A
C1300      O1301   1.275       .  A
C1300      C1367   1.478       .  S
O1301     Cr1308   2.063   1_565  S
O1302     Cr1308   1.937       .  S
O1302      C1303   1.253       .  A
C1303      O1304   1.275       .  A
C1303      C1344   1.474       .  S
O1304     Cr1309   2.060       .  S
O1305     Cr1309   1.945       .  S
O1305      C1306   1.243       .  A
C1306      C1447   1.462       .  S
Cr1307     O1310   1.733       .  S
Cr1308     O1310   1.791       .  S
Cr1309     O1310   1.747       .  S
O1311     Cr1329   2.000       .  S
O1311      C1319   1.259       .  A
O1312     Cr1329   1.942       .  S
O1312      C1313   1.258       .  A
C1313      O1314   1.274       .  A
C1313      C1394   1.474   1_655  S
O1314     Cr1330   2.037       .  S
O1315     Cr1330   1.943       .  S
O1315      C1316   1.256       .  A
C1316      O1317   1.275       .  A
O1317     Cr1331   2.049       .  S
O1318     Cr1331   1.954       .  S
O1318      C1319   1.244       .  A
C1319      C1357   1.457   1_545  S
O1320     Cr1329   1.954       .  S
O1320      C1328   1.259       .  A
O1321     Cr1329   2.006       .  S
O1321      C1322   1.262   1_655  A
C1322      O1323   1.289   1_455  A
C1322      C1504   1.531       .  S
O1323     Cr1330   2.052       .  S
O1324     Cr1330   2.104       .  S
O1324      C1325   1.279       .  A
C1325      O1326   1.237       .  A
C1325      C1817   1.528       .  S
O1326     Cr1331   1.933       .  S
O1327     Cr1331   2.030       .  S
O1327      C1328   1.277       .  A
C1328      C1347   1.488       .  S
Cr1329     O1332   1.751       .  S
Cr1330     O1332   1.785       .  S
Cr1331     O1332   1.765       .  S
C1333      C1334   1.412       .  A
C1333      C1338   1.398       .  A
C1333      H1340   1.083       .  S
C1334      C1335   1.415       .  A
C1335      C1336   1.401       .  A
C1335     Br1342   1.921       .  S
C1336      C1337   1.406       .  A
C1336      H1341   1.084       .  S
C1337      C1338   1.405       .  A
C1338     Br1339   1.916   1_556  S
C1343      C1344   1.397       .  A
C1343      C1348   1.400       .  A
C1343      H1350   1.084       .  S
C1344      C1345   1.412       .  A
C1345      C1346   1.399       .  A
C1345     Br1352   1.922       .  S
C1346      C1347   1.403       .  A
C1346      H1351   1.083       .  S
C1347      C1348   1.423       .  A
C1348     Br1349   1.923       .  S
C1353      C1354   1.406       .  A
C1353      C1358   1.395       .  A
C1353      H1360   1.078       .  S
C1354      C1355   1.406       .  A
C1355      C1356   1.394       .  A
C1355     Br1362   1.918       .  S
C1356      C1357   1.399       .  A
C1356      H1361   1.083       .  S
C1357      C1358   1.400       .  A
C1358     Br1359   1.917       .  S
C1363      C1364   1.411       .  A
C1363      C1368   1.405       .  A
C1363      H1370   1.084       .  S
C1364      C1365   1.407       .  A
C1365      C1366   1.379       .  A
C1365     Br1372   1.929       .  S
C1366      C1367   1.409       .  A
C1366      H1371   1.084       .  S
C1367      C1368   1.407       .  A
C1368     Br1369   1.917       .  S
C1373      C1374   1.409       .  A
C1373      C1378   1.390       .  A
C1373      H1380   1.084       .  S
C1374      C1375   1.413       .  A
C1375      C1376   1.395       .  A
C1375     Br1382   1.922       .  S
C1376      C1377   1.402       .  A
C1376      H1381   1.084       .  S
C1377      C1378   1.403       .  A
C1378     Br1379   1.917   1_556  S
C1383      C1384   1.411       .  A
C1383      C1388   1.397       .  A
C1383      H1390   1.083       .  S
C1384      C1385   1.412       .  A
C1385      C1386   1.396       .  A
C1385     Br1392   1.922       .  S
C1386      C1387   1.406       .  A
C1386      H1391   1.084       .  S
C1387      C1388   1.404       .  A
C1388     Br1389   1.918       .  S
C1393      C1394   1.405       .  A
C1393      C1398   1.385       .  A
C1393      H1400   1.083   1_455  S
C1394      C1395   1.410       .  A
C1395      C1396   1.400       .  A
C1395     Br1402   1.920       .  S
C1396      C1397   1.407       .  A
C1396      H1401   1.084       .  S
C1397      C1398   1.400       .  A
C1398     Br1399   1.915   1_545  S
C1403      C1404   1.401       .  A
C1403      C1408   1.390       .  A
C1403      H1410   1.082       .  S
C1404      C1405   1.405       .  A
C1405      C1406   1.396       .  A
C1405     Br1412   1.917       .  S
C1406      C1407   1.401   1_455  A
C1406      H1411   1.084   1_455  S
C1407      C1408   1.400   1_655  A
C1408     Br1409   1.918       .  S
C1413      C1414   1.398       .  A
C1413      C1418   1.395       .  A
C1413      H1420   1.084       .  S
C1414      C1415   1.409       .  A
C1415      C1416   1.390       .  A
C1415     Br1422   1.920   1_455  S
C1416      C1417   1.397       .  A
C1416      H1421   1.082       .  S
C1417      C1418   1.412       .  A
C1418     Br1419   1.911       .  S
C1423      C1424   1.413       .  A
C1423      C1428   1.403       .  A
C1423      H1430   1.084       .  S
C1424      C1425   1.408       .  A
C1425      C1426   1.403       .  A
C1425     Br1432   1.915   1_545  S
C1426      C1427   1.413       .  A
C1426      H1431   1.084       .  S
C1427      C1428   1.410       .  A
C1428     Br1429   1.920       .  S
C1433      C1434   1.410       .  A
C1433      C1438   1.405       .  A
C1433      H1440   1.084       .  S
C1434      C1435   1.408       .  A
C1435      C1436   1.404       .  A
C1435     Br1442   1.917       .  S
C1436      C1437   1.415       .  A
C1436      H1441   1.083       .  S
C1437      C1438   1.412       .  A
C1438     Br1439   1.917       .  S
C1443      C1444   1.406       .  A
C1443      C1448   1.402       .  A
C1443      H1450   1.084       .  S
C1444      C1445   1.410       .  A
C1445      C1446   1.392   1_455  A
C1445     Br1452   1.919       .  S
C1446      C1447   1.397       .  A
C1446      H1451   1.084       .  S
C1447      C1448   1.407   1_655  A
C1448     Br1449   1.913       .  S
C1453      C1454   1.425       .  A
C1453      C1458   1.416       .  A
C1453      H1460   1.083       .  S
C1454      C1455   1.412       .  A
C1455      C1456   1.415       .  A
C1455     Br1462   1.912       .  S
C1456      C1457   1.416       .  A
C1456      H1461   1.083       .  S
C1457      C1458   1.406       .  A
C1458     Br1459   1.916       .  S
C1463      C1464   1.413       .  A
C1463      C1468   1.421       .  A
C1463      H1470   1.079       .  S
C1464      C1465   1.420       .  A
C1465      C1466   1.414       .  A
C1465     Br1472   1.920       .  S
C1466      C1467   1.409       .  A
C1466      H1471   1.083       .  S
C1467      C1468   1.420       .  A
C1468     Br1469   1.918       .  S
C1473      C1474   1.404       .  A
C1473      C1478   1.403       .  A
C1473      H1480   1.083       .  S
C1474      C1475   1.418       .  A
C1475      C1476   1.401       .  A
C1475     Br1482   1.922       .  S
C1476      C1477   1.402       .  A
C1476      H1481   1.083       .  S
C1477      C1478   1.417       .  A
C1478     Br1479   1.922       .  S
C1483      C1484   1.407       .  A
C1483      C1488   1.404       .  A
C1483      H1490   1.083       .  S
C1484      C1485   1.428       .  A
C1485      C1486   1.404       .  A
C1485     Br1492   1.924       .  S
C1486      C1487   1.396       .  A
C1486      H1491   1.084       .  S
C1487      C1488   1.413       .  A
C1488     Br1489   1.920       .  S
C1493      C1494   1.401       .  A
C1493      C1498   1.389       .  A
C1493      H1500   1.081       .  S
C1494      C1495   1.411       .  A
C1495      C1496   1.390       .  A
C1495     Br1502   1.923       .  S
C1496      C1497   1.398       .  A
C1496      H1501   1.084       .  S
C1497      C1498   1.406       .  A
C1498     Br1499   1.920       .  S
C1503      C1504   1.396       .  A
C1503      C1508   1.413       .  A
C1503      H1510   1.083       .  S
C1504      C1505   1.438       .  A
C1505      C1506   1.422       .  A
C1505     Br1512   1.921       .  S
C1506      C1507   1.402       .  A
C1506      H1511   1.081       .  S
C1507      C1508   1.438       .  A
C1508     Br1509   1.917       .  S
C1513      C1514   1.429       .  A
C1513      C1518   1.416       .  A
C1513      H1520   1.082       .  S
C1514      C1515   1.409       .  A
C1515      C1516   1.411       .  A
C1515     Br1522   1.917       .  S
C1516      C1517   1.420       .  A
C1516      H1521   1.082       .  S
C1517      C1518   1.400       .  A
C1518     Br1519   1.917       .  S
C1523      C1524   1.410       .  A
C1523      C1528   1.395       .  A
C1523      H1530   1.084       .  S
C1524      C1525   1.407       .  A
C1525      C1526   1.399       .  A
C1525     Br1532   1.921       .  S
C1526      C1527   1.412       .  A
C1526      H1531   1.084       .  S
C1527      C1528   1.407       .  A
C1528     Br1529   1.922       .  S
C1533      C1534   1.399       .  A
C1533      C1538   1.396       .  A
C1533      H1540   1.083       .  S
C1534      C1535   1.418       .  A
C1535      C1536   1.396       .  A
C1535     Br1542   1.917       .  S
C1536      C1537   1.397       .  A
C1536      H1541   1.084       .  S
C1537      C1538   1.420       .  A
C1538     Br1539   1.925       .  S
C1543      C1544   1.402       .  A
C1543      C1548   1.395       .  A
C1543      H1550   1.080       .  S
C1544      C1545   1.409       .  A
C1545      C1546   1.395       .  A
C1545     Br1552   1.921       .  S
C1546      C1547   1.400       .  A
C1546      H1551   1.083       .  S
C1547      C1548   1.406       .  A
C1548     Br1549   1.920       .  S
C1553      C1554   1.402       .  A
C1553      C1558   1.404       .  A
C1553      H1560   1.084       .  S
C1554      C1555   1.408       .  A
C1555      C1556   1.390       .  A
C1555     Br1562   1.908       .  S
C1556      C1557   1.400       .  A
C1556      H1561   1.084       .  S
C1557      C1558   1.415       .  A
C1558     Br1559   1.920       .  S
C1563      C1564   1.426       .  A
C1563      C1568   1.412       .  A
C1563      H1570   1.083       .  S
C1564      C1565   1.413       .  A
C1565      C1566   1.417       .  A
C1565     Br1572   1.916       .  S
C1566      C1567   1.417       .  A
C1566      H1571   1.081       .  S
C1567      C1568   1.404       .  A
C1568     Br1569   1.918       .  S
C1573      C1574   1.412       .  A
C1573      C1578   1.380       .  A
C1573      H1580   1.081       .  S
C1574      C1575   1.407       .  A
C1575      C1576   1.408       .  A
C1575     Br1582   1.914       .  S
C1576      C1577   1.413       .  A
C1576      H1581   1.083       .  S
C1577      C1578   1.403       .  A
C1578     Br1579   1.926       .  S
C1583      C1584   1.405       .  A
C1583      C1588   1.396       .  A
C1583      H1590   1.079       .  S
C1584      C1585   1.406       .  A
C1585      C1586   1.400       .  A
C1585     Br1592   1.917       .  S
C1586      C1587   1.403       .  A
C1586      H1591   1.084       .  S
C1587      C1588   1.402       .  A
C1588     Br1589   1.916       .  S
C1593      C1594   1.411       .  A
C1593      C1598   1.414       .  A
C1593      H1600   1.078       .  S
C1594      C1595   1.416       .  A
C1595      C1596   1.413       .  A
C1595     Br1602   1.918       .  S
C1596      C1597   1.411       .  A
C1596      H1601   1.084       .  S
C1597      C1598   1.414       .  A
C1598     Br1599   1.918       .  S
C1603      C1604   1.410       .  A
C1603      C1608   1.396       .  A
C1603      H1610   1.084       .  S
C1604      C1605   1.410       .  A
C1605      C1606   1.403       .  A
C1605     Br1612   1.918       .  S
C1606      C1607   1.411       .  A
C1606      H1611   1.084       .  S
C1607      C1608   1.407       .  A
C1608     Br1609   1.918       .  S
C1613      C1614   1.407       .  A
C1613      C1618   1.401       .  A
C1613      H1620   1.083       .  S
C1614      C1615   1.428       .  A
C1615      C1616   1.398       .  A
C1616      C1617   1.393       .  A
C1616      H1621   1.084       .  S
C1617      C1618   1.409       .  A
C1618     Br1619   1.920       .  S
C1623      C1624   1.404       .  A
C1623      C1628   1.383       .  A
C1623      H1630   1.083       .  S
C1624      C1625   1.397       .  A
C1625      C1626   1.397       .  A
C1625     Br1632   1.916       .  S
C1626      C1627   1.414       .  A
C1626      H1631   1.083       .  S
C1627      C1628   1.406       .  A
C1628     Br1629   1.925       .  S
C1633      C1634   1.413       .  A
C1633      C1638   1.416       .  A
C1633      H1640   1.081       .  S
C1634      C1635   1.420       .  A
C1635      C1636   1.416       .  A
C1635     Br1642   1.920       .  S
C1636      C1637   1.411       .  A
C1636      H1641   1.081       .  S
C1637      C1638   1.414       .  A
C1643      C1644   1.410       .  A
C1643      C1648   1.416   1_556  A
C1643      H1650   1.083   1_556  S
C1644      C1645   1.414       .  A
C1645      C1646   1.414       .  A
C1645     Br1652   1.919       .  S
C1646      C1647   1.411       .  A
C1646      H1651   1.079   1_455  S
C1647      C1648   1.419   1_556  A
C1653      C1654   1.427       .  A
C1653      C1658   1.408       .  A
C1653      H1660   1.078       .  S
C1654      C1655   1.398       .  A
C1655      C1656   1.411       .  A
C1655     Br1662   1.909       .  S
C1656      C1657   1.426       .  A
C1656      H1661   1.083       .  S
C1657      C1658   1.400       .  A
C1658     Br1659   1.917       .  S
C1663      C1664   1.417       .  A
C1663      C1668   1.426       .  A
C1663      H1670   1.081       .  S
C1664      C1665   1.420       .  A
C1665      C1666   1.416       .  A
C1665     Br1672   1.921       .  S
C1666      C1667   1.411       .  A
C1666      H1671   1.083       .  S
C1667      C1668   1.418       .  A
C1668     Br1669   1.916       .  S
C1673      C1674   1.399       .  A
C1673      C1678   1.398       .  A
C1673      H1680   1.084       .  S
C1674      C1675   1.419       .  A
C1675      C1676   1.398       .  A
C1675     Br1682   1.924       .  S
C1676      C1677   1.399       .  A
C1676      H1681   1.084       .  S
C1677      C1678   1.420       .  A
C1678     Br1679   1.924       .  S
C1683      C1684   1.399       .  A
C1683      C1688   1.396       .  A
C1683      H1690   1.083       .  S
C1684      C1685   1.423       .  A
C1685      C1686   1.392       .  A
C1685     Br1692   1.927       .  S
C1686      C1687   1.395       .  A
C1686      H1691   1.084       .  S
C1687      C1688   1.413       .  A
C1688     Br1689   1.919       .  S
C1693      C1694   1.411       .  A
C1693      C1698   1.410       .  A
C1693      H1700   1.080       .  S
C1694      C1695   1.418       .  A
C1695      C1696   1.416       .  A
C1695     Br1702   1.915       .  S
C1696      C1697   1.409       .  A
C1696      H1701   1.081       .  S
C1697      C1698   1.416       .  A
C1698     Br1699   1.921       .  S
C1703      C1704   1.413       .  A
C1703      C1708   1.418       .  A
C1703      H1710   1.081       .  S
C1704      C1705   1.413       .  A
C1705      C1706   1.407       .  A
C1705     Br1712   1.916       .  S
C1706      C1707   1.408       .  A
C1706      H1711   1.080       .  S
C1707      C1708   1.417       .  A
C1708     Br1709   1.917       .  S
C1713      C1714   1.402       .  A
C1713      C1718   1.384       .  A
C1713      H1720   1.080       .  S
C1714      C1715   1.399       .  A
C1715      C1716   1.394       .  A
C1715     Br1722   1.916       .  S
C1716      C1717   1.403       .  A
C1716      H1721   1.084       .  S
C1717      C1718   1.398       .  A
C1718     Br1719   1.923       .  S
C1723      C1724   1.398       .  A
C1723      C1728   1.416       .  A
C1723      H1730   1.083       .  S
C1724      C1725   1.439       .  A
C1725      C1726   1.410       .  A
C1725     Br1732   1.920       .  S
C1726      C1727   1.395       .  A
C1726      H1731   1.083       .  S
C1727      C1728   1.438       .  A
C1728     Br1729   1.924       .  S
C1733      C1734   1.398       .  A
C1733      H1740   1.078       .  S
C1735      C1736   1.388   1_554  A
C1735     Br1742   1.921       .  S
C1736      C1737   1.402       .  A
C1736      H1741   1.080   1_556  S
C1737      C1738   1.404       .  A
C1743      C1744   1.398       .  A
C1743      C1748   1.414       .  A
C1743      H1750   1.083       .  S
C1744      C1745   1.435       .  A
C1745      C1746   1.418       .  A
C1745     Br1752   1.913       .  S
C1746      C1747   1.400       .  A
C1746      H1751   1.083       .  S
C1747      C1748   1.440       .  A
C1753      C1754   1.401       .  A
C1753      C1758   1.397       .  A
C1753      H1760   1.083       .  S
C1754      C1755   1.421       .  A
C1755      C1756   1.400       .  A
C1755     Br1762   1.923       .  S
C1756      C1757   1.398       .  A
C1756      H1761   1.083       .  S
C1757      C1758   1.415       .  A
C1758     Br1759   1.923       .  S
C1763      C1764   1.398       .  A
C1763      C1768   1.400       .  A
C1763      H1770   1.083       .  S
C1764      C1765   1.418       .  A
C1765      C1766   1.401       .  A
C1765     Br1772   1.921       .  S
C1766      C1767   1.400       .  A
C1766      H1771   1.083       .  S
C1767      C1768   1.418       .  A
C1768     Br1769   1.916       .  S
C1773      C1774   1.402       .  A
C1773      C1778   1.421       .  A
C1773      H1780   1.083       .  S
C1774      C1775   1.437       .  A
C1775      C1776   1.408       .  A
C1775     Br1782   1.914       .  S
C1776      C1777   1.393       .  A
C1776      H1781   1.084       .  S
C1777      C1778   1.437       .  A
C1778     Br1779   1.922       .  S
C1783      C1784   1.408       .  A
C1783      C1788   1.401       .  A
C1783      H1790   1.083       .  S
C1784      C1785   1.409       .  A
C1785      C1786   1.388       .  A
C1785     Br1792   1.922       .  S
C1786      C1787   1.396       .  A
C1786      H1791   1.074       .  S
C1787      C1788   1.406       .  A
C1788     Br1789   1.916       .  S
C1793      C1794   1.427       .  A
C1793      C1798   1.410       .  A
C1793      H1800   1.083       .  S
C1794      C1795   1.412       .  A
C1795      C1796   1.421       .  A
C1795     Br1802   1.916       .  S
C1796      C1797   1.420       .  A
C1796      H1801   1.081       .  S
C1797      C1798   1.401       .  A
C1798     Br1799   1.917       .  S
C1803      C1804   1.406       .  A
C1803      C1808   1.386       .  A
C1803      H1810   1.075       .  S
C1804      C1805   1.411       .  A
C1805      C1806   1.403       .  A
C1805     Br1812   1.919       .  S
C1806      C1807   1.408       .  A
C1806      H1811   1.083       .  S
C1807      C1808   1.403       .  A
C1808     Br1809   1.916       .  S
C1813      C1814   1.422       .  A
C1813      C1818   1.418       .  A
C1813      H1820   1.083       .  S
C1814      C1815   1.406       .  A
C1815      C1816   1.415       .  A
C1815     Br1822   1.917       .  S
C1816      C1817   1.425       .  A
C1816      H1821   1.083       .  S
C1817      C1818   1.409       .  A
C1818     Br1819   1.916       .  S
C1823      C1828   1.393       .  A
C1823      H1830   1.084       .  S
C1824      C1825   1.408       .  A
C1825      C1826   1.402       .  A
C1825     Br1832   1.919       .  S
C1826      H1831   1.083       .  S
C1827      C1828   1.410       .  A
C1828     Br1829   1.918       .  S
C1833      C1834   1.394       .  A
C1833      C1838   1.411       .  A
C1833      H1840   1.084       .  S
C1834      C1835   1.438       .  A
C1835      C1836   1.420       .  A
C1835     Br1842   1.923       .  S
C1836      C1837   1.401       .  A
C1836      H1841   1.084       .  S
C1837      C1838   1.440       .  A
C1838     Br1839   1.917   1_566  S
C1843      C1844   1.413       .  A
C1843      C1848   1.395       .  A
C1843      H1850   1.084       .  S
C1844      C1845   1.409       .  A
C1845      C1846   1.406       .  A
C1845     Br1852   1.919       .  S
C1846      C1847   1.413       .  A
C1846      H1851   1.084       .  S
C1847      C1848   1.404       .  A
C1848     Br1849   1.922       .  S
C1853      C1854   1.410       .  A
C1853      C1858   1.404       .  A
C1853      H1860   1.084       .  S
C1854      C1855   1.407       .  A
C1855      C1856   1.397       .  A
C1855     Br1862   1.919       .  S
C1856      C1857   1.411       .  A
C1856      H1861   1.084       .  S
C1857      C1858   1.411       .  A
C1858     Br1859   1.918       .  S
C1863      C1868   1.383       .  A
C1863      H1870   1.083       .  S
C1864      C1865   1.412       .  A
C1865      C1866   1.408       .  A
C1865     Br1872   1.921       .  S
C1866      H1871   1.083       .  S
C1867      C1868   1.404       .  A
C1868     Br1869   1.923       .  S
