geometry optimzed in LAMMPS
_audit_creation_date              2020-12-01 
_audit_creation_method            'lammps2cif' 
_symmetry_space_group_name_H-M    'P1' 
_symmetry_Int_Tables_number       1 
_symmetry_cell_setting            triclinic 
loop_ 
_symmetry_equiv_pos_as_xyz 
  x,y,z 
_cell_length_a                    48.29273811 
_cell_length_b                    48.21056744790474 
_cell_length_c                    29.219673396092073 
_cell_angle_alpha                 89.75386188905588 
_cell_angle_beta                  90.31544052341845 
_cell_angle_gamma                 89.74318600698626 
loop_ 
_atom_site_label 
_atom_site_type_symbol 
_atom_site_fract_x 
_atom_site_fract_y 
_atom_site_fract_z 
_atom_site_charge 
O1          O  0.70810841  0.47853808  0.79647891    -0.85000
O2          O  0.73905589  0.45462508  0.72868012    -0.82000
C3          C  0.73992754  0.42902712  0.73960092     0.98500
O4          O  0.71845929  0.41430058  0.73708806    -0.82100
O5          O  0.66353976  0.39881558  0.72910468    -0.84700
C6          C  0.65369111  0.40061516  0.76896530     1.03000
O7          O  0.65365478  0.42349881  0.78926738    -0.77500
O8          O  0.66314211  0.47788004  0.80823419    -0.77700
C9          C  0.68775047  0.47971528  0.82321733     1.03000
O10         O  0.67879080  0.51334798  0.73197719    -0.85000
O11         O  0.70694194  0.48627985  0.66107498    -0.82000
C12         C  0.71635735  0.46689348  0.63667446     0.98500
O13         O  0.71531515  0.44216949  0.65098312    -0.82100
O14         O  0.65882982  0.43332568  0.64981169    -0.84700
C15         C  0.63383532  0.43341914  0.66212145     1.03000
O16         O  0.62737470  0.43774396  0.70350400    -0.77500
O17         O  0.63974398  0.49168380  0.71898157    -0.77600
C18         C  0.65344250  0.51370932  0.72043838     1.02900
Cr19       Cr  0.70622666  0.48130850  0.72917484     1.93700
Cr20       Cr  0.68852006  0.42442307  0.69420727     1.93200
Cr21       Cr  0.64856763  0.45770902  0.75300788     1.39100
O22         O  0.68109020  0.45458800  0.72586113    -1.22700
O23         O  0.73420577  0.45641578  0.22457749    -0.85000
O24         O  0.76252116  0.48079758  0.29521056    -0.82000
C25         C  0.78208130  0.48281290  0.32361944     0.98500
O26         O  0.80716033  0.48063078  0.31111254    -0.82100
O27         O  0.81930818  0.42643165  0.29025372    -0.84700
C28         C  0.81946935  0.40385319  0.26886154     1.03000
O29         O  0.81122334  0.40282416  0.22786204    -0.77500
O30         O  0.75657750  0.41677570  0.23171049    -0.77700
C31         C  0.73468852  0.43078347  0.23541191     1.03000
O32         O  0.76729570  0.49011834  0.16103351    -0.85000
O33         O  0.79225248  0.51661261  0.23461513    -0.82000
C34         C  0.81783871  0.51800578  0.22552712     0.98500
O35         O  0.83254848  0.49645562  0.22443547    -0.82100
O36         O  0.84711371  0.44255446  0.20795224    -0.84700
C37         C  0.84203157  0.43805045  0.16597147     1.03000
O38         O  0.81749335  0.43872739  0.15084349    -0.77500
O39         O  0.76029077  0.44629203  0.14713729    -0.77600
C40         C  0.75932327  0.47131292  0.13437724     1.02900
Cr41       Cr  0.76610341  0.48405306  0.22840886     1.93700
Cr42       Cr  0.82399370  0.46154349  0.25621005     1.93200
Cr43       Cr  0.78676178  0.42849511  0.19187114     1.39100
O44         O  0.79228796  0.45809289  0.22605122    -1.22700
O45         O  0.97712620  0.21261174  0.29295548    -0.85000
O46         O  0.95777253  0.24401087  0.36377761    -0.82000
C47         C  0.93175444  0.24484601  0.35648683     0.98500
O48         O  0.91707746  0.22367560  0.36282975    -0.82100
O49         O  0.90105085  0.16958628  0.37478145    -0.84700
C50         C  0.89998920  0.16024514  0.33449059     1.03000
O51         O  0.92159781  0.15904491  0.31081074    -0.77500
O52         O  0.97451115  0.16751362  0.28194561    -0.77700
C53         C  0.97676920  0.19203431  0.26656000     1.03000
O54         O  0.01496704  0.18295943  0.35105400    -0.85000
O55         O  0.99300577  0.21107944  0.42594693    -0.82000
C56         C  0.97572032  0.22062056  0.45398297     0.98500
O57         O  0.95030065  0.22113962  0.44373626    -0.82100
O58         O  0.94076422  0.16474206  0.44757740    -0.84700
C59         C  0.93973654  0.13964867  0.43580123     1.03000
O60         O  0.94118714  0.13282791  0.39395787    -0.77500
O61         O  0.99410555  0.14398732  0.36799930    -0.77600
C62         C  0.01598825  0.15752441  0.36205300     1.02900
Cr63       Cr  0.98379665  0.21078684  0.35932987     1.93700
Cr64       Cr  0.92941444  0.19420558  0.40444326     1.93200
Cr65       Cr  0.95796263  0.15337878  0.34062744     1.39100
O66         O  0.95713736  0.18607948  0.36762914    -1.22700
O67         O  0.96060491  0.23538446  0.86092142    -0.85000
O68         O  0.98250137  0.26729289  0.79228207    -0.82000
C69         C  0.98240040  0.28788793  0.76558544     0.98500
O70         O  0.97887050  0.31238148  0.78041806    -0.82100
O71         O  0.92493800  0.32218939  0.80590825    -0.84700
C72         C  0.90289358  0.32070712  0.82853622     1.03000
O73         O  0.90319417  0.31021066  0.86813572    -0.77500
O74         O  0.91992976  0.25597069  0.85602053    -0.77700
C75         C  0.93480623  0.23460727  0.85145390     1.03000
O76         O  0.99333655  0.26801325  0.92669243    -0.85000
O77         O  0.01796421  0.29650543  0.85379039    -0.82000
C78         C  0.01848886  0.32206814  0.86367411     0.98500
O79         O  0.99635694  0.33556377  0.86781537    -0.82100
O80         O  0.94296166  0.34658572  0.89062030    -0.84700
C81         C  0.93954108  0.33949169  0.93211529     1.03000
O82         O  0.94021682  0.31427781  0.94395729    -0.77500
O83         O  0.95016915  0.25767144  0.93956611    -0.77600
C84         C  0.97506251  0.25813136  0.95262909     1.02900
Cr85       Cr  0.98660420  0.26874547  0.85919316     1.93700
Cr86       Cr  0.96090696  0.32650066  0.83811836     1.93200
Cr87       Cr  0.93065528  0.28513914  0.89918602     1.39100
O88         O  0.95946262  0.29353522  0.86487771    -1.22700
O89         O  0.74273275  0.02354619  0.22572210    -0.85000
O90         O  0.71081137  0.99885130  0.29133462    -0.82000
C91         C  0.69020279  0.99883683  0.31753242     0.98500
O92         O  0.66584333  0.00289067  0.30244388    -0.82100
O93         O  0.65668553  0.05712258  0.27904453    -0.84700
C94         C  0.65819010  0.07974837  0.25765451     1.03000
O95         O  0.66773413  0.08028362  0.21761804    -0.77500
O96         O  0.72170828  0.06405671  0.23105170    -0.77700
C97         C  0.74300529  0.04918308  0.23631446     1.03000
O98         O  0.71156598  0.99203079  0.15645245    -0.85000
O99         O  0.68271091  0.96511326  0.22533049    -0.82000
C100        C  0.65733230  0.96496593  0.21416097     0.98500
O101        O  0.64335525  0.98701614  0.21370387    -0.82100
O102        O  0.63201749  0.04079998  0.19283166    -0.84700
C103        C  0.63936720  0.04395275  0.15145981     1.03000
O104        O  0.66463993  0.04418424  0.14068180    -0.77500
O105        O  0.72137111  0.03563539  0.14610059    -0.77600
C106        C  0.72168255  0.01098389  0.13208046     1.02900
Cr107      Cr  0.71000234  0.99691178  0.22414883     1.93700
Cr108      Cr  0.65210713  0.02190787  0.24517876     1.93200
Cr109      Cr  0.69322753  0.05369652  0.18639463     1.39100
O110        O  0.68505941  0.02401425  0.21922148    -1.22700
O111        O  0.76000742  0.00014136  0.78944502    -0.85000
O112        O  0.73084140  0.02830952  0.72423181    -0.82000
C113        C  0.73229269  0.05347371  0.73715165     0.98500
O114        O  0.75454632  0.06687721  0.73328573    -0.82100
O115        O  0.81004520  0.07895191  0.72123503    -0.84700
C116        C  0.82053569  0.07720083  0.76073045     1.03000
O117        O  0.82026319  0.05442049  0.78188296    -0.77500
O118        O  0.80491367  0.00102958  0.80398986    -0.77700
C119        C  0.78001066  0.99808542  0.81697117     1.03000
O120        O  0.78609775  0.96509155  0.72442265    -0.85000
O121        O  0.76030769  0.99574731  0.65489233    -0.82000
C122        C  0.75102725  0.01581233  0.63168595     0.98500
O123        O  0.75321735  0.04011787  0.64687049    -0.82100
O124        O  0.81044766  0.04391906  0.64330224    -0.84700
C125        C  0.83556951  0.04081965  0.65450158     1.03000
O126        O  0.84267847  0.03602647  0.69574865    -0.77500
O127        O  0.82715390  0.98348272  0.71603844    -0.77600
C128        C  0.81166003  0.96263930  0.71606600     1.02900
Cr129      Cr  0.76153440  0.99923942  0.72271506     1.93700
Cr130      Cr  0.78252764  0.05506649  0.68872849     1.93200
Cr131      Cr  0.82102141  0.01895058  0.74748110     1.39100
O132        O  0.78845129  0.02429549  0.72040925    -1.22700
O133        O  0.51450591  0.24275765  0.85012861    -0.85000
O134        O  0.49104106  0.21100977  0.78300879    -0.82000
C135        C  0.48929198  0.18975393  0.75826192     0.98500
O136        O  0.48924999  0.16557157  0.77581745    -0.82100
O137        O  0.54219945  0.15325904  0.80088535    -0.84700
C138        C  0.56468891  0.15335372  0.82258669     1.03000
O139        O  0.56603460  0.16423090  0.86185413    -0.77500
O140        O  0.55336944  0.21893547  0.84678793    -0.77700
C141        C  0.54007200  0.24104958  0.84003726     1.03000
O142        O  0.47929399  0.21396517  0.91668582    -0.85000
O143        O  0.45307478  0.18601199  0.84593783    -0.82000
C144        C  0.45093468  0.16146688  0.86108496     0.98500
O145        O  0.47204506  0.14656044  0.86676898    -0.82100
O146        O  0.52488710  0.13140244  0.88809577    -0.84700
C147        C  0.52898130  0.13931577  0.92900481     1.03000
O148        O  0.52942007  0.16473257  0.93869717    -0.77500
O149        O  0.52306373  0.22136605  0.93098875    -0.77600
C150        C  0.49806943  0.22208734  0.94346390     1.02900
Cr151      Cr  0.48621003  0.21154238  0.84977900     1.93700
Cr152      Cr  0.50710254  0.15171647  0.83455968     1.93200
Cr153      Cr  0.54081759  0.19192292  0.89206178     1.39100
O154        O  0.51133577  0.18501692  0.85827437    -1.22700
O155        O  0.49551264  0.26698691  0.28550423    -0.85000
O156        O  0.52004664  0.23770079  0.35557855    -0.82000
C157        C  0.54579909  0.23824330  0.34628989     0.98500
O158        O  0.55926529  0.26043636  0.34955833    -0.82100
O159        O  0.57161628  0.31586359  0.35633672    -0.84700
C160        C  0.57009815  0.32520659  0.31584720     1.03000
O161        O  0.54750412  0.32436184  0.29434479    -0.77500
O162        O  0.49370487  0.31197710  0.27277008    -0.77700
C163        C  0.49318254  0.28720366  0.25824618     1.03000
O164        O  0.45834348  0.29494331  0.34719553    -0.85000
O165        O  0.48562323  0.26885940  0.41998043    -0.82000
C166        C  0.50460266  0.26082271  0.44676701     0.98500
O167        O  0.52956847  0.26212928  0.43417186    -0.82100
O168        O  0.53539499  0.31915097  0.43346422    -0.84700
C169        C  0.53528827  0.34404494  0.42018525     1.03000
O170        O  0.53099349  0.35015310  0.37846263    -0.77500
O171        O  0.47769603  0.33511909  0.36083325    -0.77600
C172        C  0.45642945  0.32028084  0.35837806     1.02900
Cr173      Cr  0.49166414  0.26910326  0.35251601     1.93700
Cr174      Cr  0.54670309  0.28978187  0.39078333     1.93200
Cr175      Cr  0.51253838  0.32784977  0.32862964     1.39100
O176        O  0.51692325  0.29555276  0.35674947    -1.22700
O177        O  0.24084666  0.95457570  0.35247743    -0.85000
O178        O  0.20882157  0.97905701  0.28696969    -0.82000
C179        C  0.18823322  0.97881164  0.26042923     0.98500
O180        O  0.16384269  0.97652538  0.27562695    -0.82100
O181        O  0.15518724  0.92276244  0.29933664    -0.84700
C182        C  0.15589570  0.90044296  0.32153930     1.03000
O183        O  0.16520262  0.89999134  0.36190826    -0.77500
O184        O  0.21904755  0.91458164  0.34904452    -0.77700
C185        C  0.24025291  0.92893952  0.34168109     1.03000
O186        O  0.21093828  0.98764937  0.42179278    -0.85000
O187        O  0.18098350  0.01424906  0.35247662    -0.82000
C188        C  0.15557397  0.01448825  0.36344871     0.98500
O189        O  0.14171628  0.99254337  0.36394648    -0.82100
O190        O  0.13022463  0.93920473  0.38477429    -0.84700
C191        C  0.13729661  0.93586350  0.42636622     1.03000
O192        O  0.16249020  0.93629399  0.43822768    -0.77500
O193        O  0.21957892  0.94380762  0.43341214    -0.77600
C194        C  0.22078138  0.96860235  0.44674205     1.02900
Cr195      Cr  0.20843210  0.98204447  0.35406220     1.93700
Cr196      Cr  0.15035488  0.95783850  0.33284836     1.93200
Cr197      Cr  0.19105482  0.92600572  0.39324663     1.39100
O198        O  0.18322402  0.95553816  0.35967643    -1.22700
O199        O  0.26314659  0.98470093  0.78857087    -0.85000
O200        O  0.23285663  0.95885024  0.85526465    -0.82000
C201        C  0.23235081  0.93334004  0.84405858     0.98500
O202        O  0.25406303  0.91871183  0.84614913    -0.82100
O203        O  0.30928250  0.90311150  0.85616916    -0.84700
C204        C  0.31941607  0.90495793  0.81649627     1.03000
O205        O  0.31928941  0.92792361  0.79604223    -0.77500
O206        O  0.30808256  0.98227000  0.77570328    -0.77700
C207        C  0.28335043  0.98588298  0.76156587     1.03000
O208        O  0.29186668  0.01789521  0.85415043    -0.85000
O209        O  0.26540982  0.98943488  0.92353358    -0.82000
C210        C  0.25643392  0.97001021  0.94813662     0.98500
O211        O  0.25579681  0.94566310  0.93260659    -0.82100
O212        O  0.31221652  0.93765912  0.93526630    -0.84700
C213        C  0.33738586  0.93907909  0.92437241     1.03000
O214        O  0.34443460  0.94298735  0.88296007    -0.77500
O215        O  0.33141156  0.99649835  0.86552473    -0.77600
C216        C  0.31708672  0.01824167  0.86595965     1.02900
Cr217      Cr  0.26524719  0.98571424  0.85573367     1.93700
Cr218      Cr  0.28336050  0.92852854  0.88991666     1.93200
Cr219      Cr  0.32322738  0.96238392  0.83181841     1.39100
O220        O  0.29060465  0.95892532  0.85831280    -1.22700
O221        O  0.45699943  0.74489318  0.72685010    -0.85000
O222        O  0.48119702  0.71438993  0.79482263    -0.82000
C223        C  0.48277746  0.69390711  0.82152878     0.98500
O224        O  0.48116527  0.66920399  0.80663969    -0.82100
O225        O  0.42783577  0.65730779  0.78138636    -0.84700
C226        C  0.40565793  0.65684733  0.75875643     1.03000
O227        O  0.40515146  0.66653256  0.71849375    -0.77500
O228        O  0.41802398  0.72157964  0.73192004    -0.77700
C229        C  0.43144602  0.74362369  0.73760021     1.03000
O230        O  0.49195645  0.71413419  0.66118503    -0.85000
O231        O  0.51855606  0.68719079  0.73357432    -0.82000
C232        C  0.52032169  0.66187198  0.72234328     0.98500
O233        O  0.49895498  0.64731984  0.71855602    -0.82100
O234        O  0.44638937  0.63317242  0.69534251    -0.84700
C235        C  0.44320783  0.64068216  0.65375156     1.03000
O236        O  0.44241792  0.66601785  0.64305916    -0.77500
O237        O  0.44830525  0.72273268  0.64795986    -0.77600
C238        C  0.47316721  0.72292821  0.63481798     1.02900
Cr239      Cr  0.48540207  0.71322266  0.72832822     1.93700
Cr240      Cr  0.46351487  0.65423494  0.74871821     1.93200
Cr241      Cr  0.43061003  0.69381424  0.68795951     1.39100
O242        O  0.45998044  0.68702108  0.72226816    -1.22700
O243        O  0.48108935  0.76902631  0.29361683    -0.85000
O244        O  0.46008301  0.73873844  0.22228688    -0.82000
C245        C  0.43430467  0.73879196  0.23095101     0.98500
O246        O  0.42018125  0.76067291  0.22664481    -0.82100
O247        O  0.40559343  0.81579414  0.21546498    -0.84700
C248        C  0.40627653  0.82636356  0.25497552     1.03000
O249        O  0.42848804  0.82647930  0.27751752    -0.77500
O250        O  0.48119675  0.81426102  0.30446422    -0.77700
C251        C  0.48179269  0.78958536  0.32006566     1.03000
O252        O  0.51956350  0.79695051  0.23499304    -0.85000
O253        O  0.49514348  0.77075216  0.16053078    -0.82000
C254        C  0.47700462  0.76244634  0.13273093     0.98500
O255        O  0.45176451  0.76246812  0.14388401    -0.82100
O256        O  0.44326328  0.81879219  0.14046175    -0.84700
C257        C  0.44359021  0.84400599  0.15155653     1.03000
O258        O  0.44709718  0.85109434  0.19303076    -0.77500
O259        O  0.50009515  0.83648988  0.21630709    -0.77600
C260        C  0.52148521  0.82186934  0.22160798     1.02900
Cr261      Cr  0.48710267  0.77083690  0.22714358     1.93700
Cr262      Cr  0.43232550  0.78985945  0.18440659     1.93200
Cr263      Cr  0.46427557  0.82956815  0.24597444     1.39100
O264        O  0.46122053  0.79681741  0.21970644    -1.22700
O265        O  0.99008663  0.71276441  0.29713242    -0.85000
O266        O  0.01423144  0.74458106  0.23059315    -0.82000
C267        C  0.03967799  0.74527077  0.24206211     0.98500
O268        O  0.05466150  0.72388946  0.23959247    -0.82100
O269        O  0.07212628  0.66972577  0.23027636    -0.84700
C270        C  0.07054520  0.65929500  0.26992027     1.03000
O271        O  0.04764703  0.65872687  0.29005762    -0.77500
O272        O  0.99307981  0.66772934  0.30909050    -0.77700
C273        C  0.99005126  0.69225831  0.32401034     1.03000
O274        O  0.95704669  0.68346945  0.23060727    -0.85000
O275        O  0.98412309  0.71294644  0.16154928    -0.82000
C276        C  0.00335165  0.72328051  0.13801749     0.98500
O277        O  0.02796839  0.72226099  0.15270951    -0.82100
O278        O  0.03812135  0.66559787  0.15034088    -0.84700
C279        C  0.03887790  0.64044913  0.16242434     1.03000
O280        O  0.03410248  0.63343147  0.20358403    -0.77500
O281        O  0.97990585  0.64473448  0.21916946    -0.77600
C282        C  0.95760353  0.65816433  0.21905127     1.02900
Cr283      Cr  0.98834673  0.71141211  0.22964128     1.93700
Cr284      Cr  0.04588440  0.69481275  0.19562956     1.93200
Cr285      Cr  0.01352504  0.65377803  0.25352410     1.39100
O286        O  0.01576411  0.68662600  0.22666285    -1.22700
O287        O  0.01450261  0.74021440  0.72813622    -0.85000
O288        O  0.98916020  0.76984225  0.79580786    -0.82000
C289        C  0.98907476  0.78929746  0.82442541     0.98500
O290        O  0.99367671  0.81416429  0.81227891    -0.82100
O291        O  0.04814167  0.82387315  0.79083508    -0.84700
C292        C  0.07057985  0.82325360  0.76918780     1.03000
O293        O  0.07102772  0.81480750  0.72843270    -0.77500
O294        O  0.05494664  0.76075252  0.73512432    -0.77700
C295        C  0.04017920  0.73941845  0.73853573     1.03000
O296        O  0.98335365  0.77396785  0.66055623    -0.85000
O297        O  0.95619021  0.80079679  0.73110156    -0.82000
C298        C  0.95628313  0.82662046  0.72292305     0.98500
O299        O  0.97827617  0.84037886  0.72562711    -0.82100
O300        O  0.03234214  0.85179595  0.70741864    -0.84700
C301        C  0.03648718  0.84608132  0.66560188     1.03000
O302        O  0.03524448  0.82143168  0.65142977    -0.77500
O303        O  0.02682127  0.76436239  0.64953798    -0.77600
C304        C  0.00218120  0.76473517  0.63509776     1.02900
Cr305      Cr  0.98787994  0.77317370  0.72862642     1.93700
Cr306      Cr  0.01296193  0.82994306  0.75687643     1.93200
Cr307      Cr  0.04457844  0.79087928  0.69374221     1.39100
O308        O  0.01499204  0.79800484  0.72713574    -1.22700
O309        O  0.23696455  0.52829686  0.35561210    -0.85000
O310        O  0.26668414  0.50246433  0.28857193    -0.82000
C311        C  0.28636703  0.50292989  0.26055643     0.98500
O312        O  0.31110316  0.50724478  0.27365313    -0.82100
O313        O  0.32224367  0.56008263  0.30208821    -0.84700
C314        C  0.32286880  0.58160474  0.32610261     1.03000
O315        O  0.31441828  0.58081566  0.36680573    -0.77500
O316        O  0.25961613  0.56795974  0.35398470    -0.77700
C317        C  0.23783579  0.55432348  0.34692149     1.03000
O318        O  0.26796273  0.49339840  0.42310605    -0.85000
O319        O  0.29508636  0.46683097  0.35303972    -0.82000
C320        C  0.32092278  0.46585129  0.36106199     0.98500
O321        O  0.33546853  0.48733573  0.35928537    -0.82100
O322        O  0.34840766  0.53948495  0.38560496    -0.84700
C323        C  0.34188309  0.54145993  0.42768279     1.03000
O324        O  0.31682601  0.54163167  0.43979780    -0.77500
O325        O  0.25933454  0.53677812  0.43661779    -0.77600
C326        C  0.25889409  0.51182017  0.44939839     1.02900
Cr327      Cr  0.26865296  0.49973600  0.35564774     1.93700
Cr328      Cr  0.32669368  0.52351738  0.33211371     1.93200
Cr329      Cr  0.28803392  0.55446290  0.39650228     1.39100
O330        O  0.29447357  0.52570085  0.36061435    -1.22700
O331        O  0.20909053  0.50101082  0.78721647    -0.85000
O332        O  0.24007577  0.52721207  0.85276531    -0.82000
C333        C  0.24003462  0.55258681  0.84021242     0.98500
O334        O  0.21849164  0.56723837  0.84354301    -0.82100
O335        O  0.16387587  0.58207800  0.85143578    -0.84700
C336        C  0.15451214  0.58004242  0.81125238     1.03000
O337        O  0.15366004  0.55688280  0.79182562    -0.77500
O338        O  0.16408003  0.50222641  0.77499660    -0.77700
C339        C  0.18864217  0.49992209  0.76031806     1.03000
O340        O  0.18063399  0.46771957  0.85446649    -0.85000
O341        O  0.20924434  0.49664730  0.92318712    -0.82000
C342        C  0.21856950  0.51657127  0.94645915     0.98500
O343        O  0.21700285  0.54091919  0.93074399    -0.82100
O344        O  0.16002601  0.54861444  0.93182704    -0.84700
C345        C  0.13491994  0.54827733  0.91954469     1.03000
O346        O  0.12826211  0.54356418  0.87823140    -0.77500
O347        O  0.14116958  0.48950619  0.86451508    -0.77600
C348        C  0.15514544  0.46752166  0.86490834     1.02900
Cr349      Cr  0.20772724  0.50002274  0.85474701     1.93700
Cr350      Cr  0.18929574  0.55731665  0.88709425     1.93200
Cr351      Cr  0.14946833  0.52305649  0.82940500     1.39100
O352        O  0.18217164  0.52666273  0.85655972    -1.22700
C353        C  0.23940743  0.48952570  0.57152824     0.16300
C354        C  0.23936002  0.47951695  0.61676333    -0.32700
C355        C  0.21854320  0.48923999  0.64615884     0.20700
C356        C  0.19808081  0.50731090  0.63071896     0.02900
C357        C  0.19833711  0.51758232  0.58571624    -0.22500
C358        C  0.21971939  0.50866064  0.55685169     0.12100
S359        S  0.26349319  0.48118678  0.53097847    -0.06100
C360        C  0.24755315  0.50459411  0.49461701    -0.09600
C361        C  0.22453479  0.51767970  0.51298455    -0.26200
S362        S  0.17490059  0.51700209  0.67172884    -0.03400
C363        C  0.19362854  0.49755594  0.71071910    -0.16800
C364        C  0.21628077  0.48381699  0.69222955    -0.14800
H365        H  0.25528360  0.46535052  0.62884891     0.20500
H366        H  0.18296811  0.53248559  0.57408581     0.16600
H367        H  0.21216892  0.53320182  0.49528284     0.19100
H368        H  0.23087165  0.47136333  0.71180607     0.12400
C369        C  0.25599287  0.48890187  0.14101041     0.16300
C370        C  0.23869674  0.48141249  0.10421148    -0.32700
C371        C  0.24158162  0.49595138  0.06272058     0.20700
C372        C  0.26091866  0.51697307  0.05832060     0.02900
C373        C  0.27877060  0.52384869  0.09461363    -0.22500
C374        C  0.27585697  0.50937263  0.13606722     0.12100
S375        S  0.25341035  0.47618978  0.19547045    -0.06100
C376        C  0.27957713  0.49840411  0.21177407    -0.09600
C377        C  0.28984377  0.51455404  0.17635982    -0.26200
S378        S  0.25955082  0.53399477  0.00708563    -0.03400
C379        C  0.23300055  0.51231169  0.99069817    -0.16800
C380        C  0.22570957  0.49285564  0.02363629    -0.14800
H381        H  0.22299485  0.46563884  0.10827519     0.20500
H382        H  0.29363209  0.54047528  0.09117600     0.16600
H383        H  0.30528484  0.53057978  0.18056517     0.19100
H384        H  0.20898059  0.47813687  0.01995555     0.12400
C385        C  0.12474184  0.65048159  0.78103059     0.16300
C386        C  0.11826023  0.67872975  0.78117783    -0.32700
C387        C  0.09127709  0.68644282  0.76885550     0.20700
C388        C  0.07145451  0.66703815  0.75685531     0.02900
C389        C  0.07804381  0.63868015  0.75624534    -0.22500
C390        C  0.10517548  0.63091600  0.76842594     0.12100
S391        S  0.15546274  0.63697537  0.79950972    -0.06100
C392        C  0.14193948  0.60457062  0.79015098    -0.09600
C393        C  0.11518474  0.60439341  0.77275930    -0.26200
S394        S  0.03998553  0.68106766  0.74217958    -0.03400
C395        C  0.05408826  0.71333267  0.75127872    -0.16800
C396        C  0.08141125  0.71291177  0.76604928    -0.14800
H397        H  0.13348625  0.69402972  0.79112828     0.20500
H398        H  0.06267760  0.62335535  0.74708098     0.16600
H399        H  0.10291309  0.58589703  0.76766203     0.19100
H400        H  0.09380887  0.73115180  0.77270640     0.12400
C401        C  0.12570827  0.60973320  0.31845201     0.16300
C402        C  0.14003281  0.58662989  0.33630403    -0.32700
C403        C  0.16860660  0.58473873  0.32800853     0.20700
C404        C  0.18229059  0.60523814  0.30365877     0.02900
C405        C  0.16793660  0.62808435  0.28529628    -0.22500
C406        C  0.13935815  0.62973259  0.29298763     0.12100
S407        S  0.09090324  0.61547705  0.32346084    -0.06100
C408        C  0.09466318  0.64465400  0.28972068    -0.09600
C409        C  0.12165150  0.64970801  0.27619040    -0.26200
S410        S  0.21713789  0.60026685  0.29974870    -0.03400
C411        C  0.21336957  0.56993404  0.33059032    -0.16800
C412        C  0.18632618  0.56412114  0.34303348    -0.14800
H413        H  0.12935541  0.57078632  0.35567037     0.20500
H414        H  0.17859847  0.64389599  0.26581520     0.16600
H415        H  0.12781584  0.66653442  0.25383140     0.19100
H416        H  0.18018927  0.54654248  0.36375498     0.12400
C417        C  0.07893791  0.58068787  0.99406484     0.16300
C418        C  0.05928510  0.59916190  0.01182371    -0.32700
C419        C  0.05829452  0.60219857  0.05951428     0.20700
C420        C  0.07514949  0.58654891  0.08838273     0.02900
C421        C  0.09471733  0.56801330  0.07063915    -0.22500
C422        C  0.09661726  0.56597286  0.02292000     0.12100
S423        S  0.08570270  0.57658599  0.93717497    -0.06100
C424        C  0.11353489  0.55607479  0.95261831    -0.09600
C425        C  0.11658830  0.55187141  0.99928631    -0.26200
S426        S  0.07174834  0.59419955  0.14506234    -0.03400
C427        C  0.04828365  0.61956996  0.12954699    -0.16800
C428        C  0.04298376  0.62140052  0.08298052    -0.14800
H429        H  0.04634047  0.61166627  0.98939021     0.20500
H430        H  0.10880839  0.55675803  0.09298805     0.16600
H431        H  0.13343245  0.54036449  0.01512294     0.19100
H432        H  0.02957373  0.63675329  0.06706202     0.12400
C433        C  0.99907088  0.70323181  0.45333286     0.16300
C434        C  0.01014295  0.70456016  0.49782101    -0.32700
C435        C  0.00060353  0.72575192  0.52670181     0.20700
C436        C  0.98022033  0.74426828  0.51252790     0.02900
C437        C  0.96935011  0.74313195  0.46780342    -0.22500
C438        C  0.97958260  0.72248072  0.43837858     0.12100
S439        S  0.00930372  0.68019546  0.41227127    -0.06100
C440        C  0.98806776  0.69732453  0.37379941    -0.09600
C441        C  0.97339046  0.71936026  0.39262005    -0.26200
S442        S  0.97116861  0.76814859  0.55321708    -0.03400
C443        C  0.99574503  0.75361442  0.58913230    -0.16800
C444        C  0.00986701  0.73127648  0.57029038    -0.14800
H445        H  0.02602992  0.69010335  0.50906871     0.20500
H446        H  0.95406713  0.75810301  0.45611454     0.16600
H447        H  0.95978181  0.73305638  0.37337532     0.19100
H448        H  0.02606824  0.71965515  0.58767687     0.12400
C449        C  0.97443486  0.75904023  0.94378764     0.16300
C450        C  0.96759121  0.74153721  0.98060939    -0.32700
C451        C  0.98112715  0.74584362  0.02266302     0.20700
C452        C  0.00037990  0.76689514  0.02775780     0.02900
C453        C  0.00638856  0.78505608  0.99150015    -0.22500
C454        C  0.99311491  0.78054898  0.94936540     0.12100
S455        S  0.96340219  0.75471406  0.88861262    -0.06100
C456        C  0.98393732  0.78233149  0.87290515    -0.09600
C457        C  0.99822547  0.79434830  0.90898258    -0.26200
S458        S  0.01704661  0.76675712  0.07937640    -0.03400
C459        C  0.99777020  0.73819757  0.09469387    -0.16800
C460        C  0.97912232  0.72957409  0.06142409    -0.14800
H461        H  0.95334922  0.72447016  0.97606070     0.20500
H462        H  0.02175852  0.80118234  0.99535801     0.16600
H463        H  0.01306092  0.81098201  0.90529707     0.19100
H464        H  0.96604249  0.71147918  0.06443164     0.12400
C465        C  0.35465303  0.65231965  0.30060879     0.16300
C466        C  0.36332254  0.67992774  0.30218329    -0.32700
C467        C  0.38603507  0.68737566  0.27533556     0.20700
C468        C  0.39972814  0.66823930  0.24819189     0.02900
C469        C  0.39062602  0.64068787  0.24578538    -0.22500
C470        C  0.36773843  0.63324235  0.27253740     0.12100
S471        S  0.32897285  0.63881738  0.33354544    -0.06100
C472        C  0.33556418  0.60714969  0.30882511    -0.09600
C473        C  0.35652125  0.60727797  0.27657099    -0.26200
S474        S  0.42748403  0.68149530  0.21939634    -0.03400
C475        C  0.42000648  0.71315653  0.24356946    -0.16800
C476        C  0.39739596  0.71320259  0.27242217    -0.14800
H477        H  0.35309673  0.69486806  0.32400269     0.20500
H478        H  0.40114358  0.62564360  0.22455575     0.16600
H479        H  0.36417347  0.58906189  0.25904288     0.19100
H480        H  0.38958782  0.73130221  0.29011418     0.12400
C481        C  0.34842304  0.61422556  0.81710375     0.16300
C482        C  0.33270228  0.59659972  0.84516358    -0.32700
C483        C  0.30719667  0.58711342  0.82795677     0.20700
C484        C  0.29761490  0.59524162  0.78508528     0.02900
C485        C  0.31333602  0.61272118  0.75708504    -0.22500
C486        C  0.33889691  0.62190174  0.77401847     0.12100
S487        S  0.38040136  0.62719647  0.83054907    -0.06100
C488        C  0.38098609  0.64282014  0.77728691    -0.09600
C489        C  0.35737663  0.63832378  0.75117396    -0.26200
S490        S  0.26557692  0.58291685  0.77127006    -0.03400
C491        C  0.26526184  0.56597729  0.82321767    -0.16800
C492        C  0.28872798  0.57003555  0.84994043    -0.14800
H493        H  0.34009315  0.59041861  0.87875680     0.20500
H494        H  0.30595112  0.61890812  0.72348336     0.16600
H495        H  0.35428072  0.64589032  0.71655800     0.19100
H496        H  0.29152895  0.56196133  0.88430679     0.12400
C497        C  0.38609475  0.55800545  0.53270658     0.16300
C498        C  0.39452708  0.56410026  0.57755027    -0.32700
C499        C  0.41390407  0.58539360  0.58356482     0.20700
C500        C  0.42483292  0.59955948  0.54643972     0.02900
C501        C  0.41744621  0.59251526  0.50151306    -0.22500
C502        C  0.39763161  0.57164646  0.49556073     0.12100
S503        S  0.35892311  0.53702718  0.51894796    -0.06100
C504        C  0.36322065  0.54666502  0.46259118    -0.09600
C505        C  0.38502263  0.56466853  0.45506305    -0.26200
S506        S  0.44422708  0.62771749  0.56086475    -0.03400
C507        C  0.43768162  0.62031036  0.61754761    -0.16800
C508        C  0.42173898  0.59685758  0.62456366    -0.14800
H509        H  0.38494024  0.55406415  0.60662219     0.20500
H510        H  0.42531687  0.60413402  0.47260357     0.16600
H511        H  0.38961300  0.57423662  0.42237420     0.19100
H512        H  0.41415085  0.59012683  0.65759242     0.12400
C513        C  0.49320725  0.74071135  0.51128378     0.16300
C514        C  0.50254637  0.74024608  0.46587882    -0.32700
C515        C  0.49175451  0.76023631  0.43541641     0.20700
C516        C  0.47307966  0.78028472  0.44976816     0.02900
C517        C  0.46345458  0.78050137  0.49496727    -0.22500
C518        C  0.47367031  0.76007697  0.52507185     0.12100
S519        S  0.50299954  0.71771523  0.55323591    -0.06100
C520        C  0.47975284  0.73375996  0.58905917    -0.09600
C521        C  0.46565448  0.75597296  0.56950602    -0.26200
S522        S  0.46250024  0.80273474  0.40758197    -0.03400
C523        C  0.48279269  0.78444845  0.36983926    -0.16800
C524        C  0.49709260  0.76229480  0.38942047    -0.14800
H525        H  0.51718973  0.72467007  0.45457494     0.20500
H526        H  0.44825356  0.79561554  0.50597511     0.16600
H527        H  0.45001262  0.76818010  0.58675070     0.19100
H528        H  0.51030689  0.74814863  0.37074662     0.12400
C529        C  0.48250291  0.70214874  0.95218208     0.16300
C530        C  0.47695753  0.70020488  0.99912751    -0.32700
C531        C  0.48276884  0.72340509  0.02634989     0.20700
C532        C  0.49435981  0.74724654  0.00802299     0.02900
C533        C  0.49971742  0.74926688  0.96103970    -0.22500
C534        C  0.49319674  0.72632946  0.93364361     0.12100
S535        S  0.47544885  0.67690024  0.91281544    -0.06100
C536        C  0.48619339  0.69949562  0.87079209    -0.09600
C537        C  0.49520786  0.72497061  0.88700865    -0.26200
S538        S  0.49925766  0.77333773  0.04668328    -0.03400
C539        C  0.48474509  0.75217322  0.08747070    -0.16800
C540        C  0.47692415  0.72626228  0.07190796    -0.14800
H541        H  0.46780024  0.68169808  0.01360257     0.20500
H542        H  0.50791573  0.76815291  0.94628767     0.16600
H543        H  0.50212387  0.74195078  0.86558809     0.19100
H544        H  0.46671303  0.71069961  0.09257793     0.12400
C545        C  0.14231460  0.85139451  0.79639314     0.16300
C546        C  0.17051560  0.85780203  0.79501058    -0.32700
C547        C  0.17870208  0.88365696  0.81183243     0.20700
C548        C  0.15974353  0.90244467  0.82934327     0.02900
C549        C  0.13149572  0.89580528  0.83154287    -0.22500
C550        C  0.12327053  0.86980978  0.81477012     0.12100
S551        S  0.12809335  0.82236231  0.77313765    -0.06100
C552        C  0.09607425  0.83489056  0.78863229    -0.09600
C553        C  0.09663820  0.86015317  0.81118556    -0.26200
S554        S  0.17416561  0.93284878  0.84765980    -0.03400
C555        C  0.20606100  0.91968923  0.83244933    -0.16800
C556        C  0.20521023  0.89340140  0.81355376    -0.14800
H557        H  0.18539551  0.84345630  0.78059388     0.20500
H558        H  0.11655370  0.91038952  0.84509686     0.16600
H559        H  0.07841756  0.87184736  0.82094931     0.19100
H560        H  0.22319793  0.88170168  0.80267922     0.12400
C561        C  0.38138592  0.79714400  0.78671340     0.16300
C562        C  0.35966332  0.81054488  0.80940358    -0.32700
C563        C  0.35341178  0.83789657  0.79649880     0.20700
C564        C  0.36784740  0.85122238  0.76197829     0.02900
C565        C  0.38969013  0.83780672  0.73929823    -0.22500
C566        C  0.39630848  0.81055649  0.75281506     0.12100
S567        S  0.39131100  0.76368601  0.79646018    -0.06100
C568        C  0.41617751  0.76776337  0.75497240    -0.09600
C569        C  0.41666228  0.79384140  0.73478369    -0.26200
S570        S  0.35760574  0.88477950  0.75265588    -0.03400
C571        C  0.33415666  0.88103406  0.79658254    -0.16800
C572        C  0.33405900  0.85483315  0.81638390    -0.14800
H573        H  0.34823478  0.80014107  0.83620267     0.20500
H574        H  0.40120541  0.84825475  0.71266245     0.16600
H575        H  0.43006966  0.79970089  0.70680596     0.19100
H576        H  0.32139852  0.84887346  0.84525790     0.12400
C577        C  0.42368405  0.88556022  0.04499520     0.16300
C578        C  0.41601743  0.89234146  0.99999844    -0.32700
C579        C  0.39448994  0.91158460  0.99372922     0.20700
C580        C  0.38166764  0.92415437  0.03067073     0.02900
C581        C  0.39029497  0.91840046  0.07569102    -0.22500
C582        C  0.41130197  0.89849555  0.08200373     0.12100
S583        S  0.44512351  0.85869166  0.05942330    -0.06100
C584        C  0.43732863  0.86475984  0.11594319    -0.09600
C585        C  0.41956627  0.88700878  0.12300844    -0.26200
S586        S  0.35302845  0.94326799  0.01630692    -0.03400
C587        C  0.35839843  0.93412411  0.96006477    -0.16800
C588        C  0.38157685  0.91774429  0.95298499    -0.14800
H589        H  0.42501325  0.88153731  0.97121616     0.20500
H590        H  0.37970062  0.92748097  0.10460417     0.16600
H591        H  0.41102723  0.89264000  0.15591006     0.19100
H592        H  0.38722130  0.90882498  0.92035603     0.12400
C593        C  0.12321948  0.83070876  0.29793704     0.16300
C594        C  0.11413461  0.80341401  0.30186143    -0.32700
C595        C  0.08915256  0.79665801  0.28051022     0.20700
C596        C  0.07372650  0.81604314  0.25601142     0.02900
C597        C  0.08305581  0.84342849  0.25148827    -0.22500
C598        C  0.10817895  0.85024379  0.27303873     0.12100
S599        S  0.15159750  0.84331027  0.32532443    -0.06100
C600        C  0.14319936  0.87536843  0.30328331    -0.09600
C601        C  0.11992741  0.87599737  0.27530496    -0.26200
S602        S  0.04406000  0.80304459  0.23216744    -0.03400
C603        C  0.05313119  0.77123237  0.25495388    -0.16800
C604        C  0.07743933  0.77106722  0.28010816    -0.14800
H605        H  0.12582235  0.78816805  0.32139152     0.20500
H606        H  0.07116050  0.85876808  0.23253373     0.16600
H607        H  0.11088780  0.89462928  0.26059251     0.19100
H608        H  0.08665361  0.75281239  0.29583295     0.12400
C609        C  0.07621556  0.89856166  0.59488661     0.16300
C610        C  0.09750152  0.91519884  0.57776086    -0.32700
C611        C  0.09925985  0.91826750  0.53017265     0.20700
C612        C  0.08000253  0.90629645  0.50098810     0.02900
C613        C  0.05866044  0.88975072  0.51811462    -0.22500
C614        C  0.05760783  0.88572377  0.56556110     0.12100
S615        S  0.07255944  0.88966498  0.65105492    -0.06100
C616        C  0.04649723  0.86758301  0.63452796    -0.09600
C617        C  0.04058681  0.86773209  0.58815332    -0.26200
S618        S  0.08656590  0.91119074  0.44428988    -0.03400
C619        C  0.11619434  0.92850977  0.46006980    -0.16800
C620        C  0.12019048  0.93098676  0.50681996    -0.14800
H621        H  0.11281973  0.92421481  0.60038138     0.20500
H622        H  0.04435103  0.87936464  0.49531326     0.16600
H623        H  0.02574798  0.85423159  0.57162581     0.19100
H624        H  0.13808196  0.94045111  0.52278593     0.12400
C625        C  0.19867496  0.96894662  0.13183026     0.16300
C626        C  0.19939604  0.95853903  0.08711315    -0.32700
C627        C  0.21998138  0.96865586  0.05779887     0.20700
C628        C  0.23869312  0.98864765  0.07196620     0.02900
C629        C  0.23833945  0.99860334  0.11695317    -0.22500
C630        C  0.21808279  0.98811549  0.14651771     0.12100
S631        S  0.17580591  0.95885651  0.17309639    -0.06100
C632        C  0.19315874  0.98001122  0.21086540    -0.09600
C633        C  0.21520825  0.99428209  0.19197159    -0.26200
S634        S  0.26152303  0.99885002  0.03071176    -0.03400
C635        C  0.24617753  0.97535824  0.99448870    -0.16800
C636        C  0.22447579  0.96063645  0.01353642    -0.14800
H637        H  0.18473412  0.94304591  0.07579564     0.20500
H638        H  0.25334235  0.01369364  0.12852796     0.16600
H639        H  0.22890956  0.00782702  0.21090122     0.19100
H640        H  0.21259196  0.94494838  0.99581610     0.12400
C641        C  0.26235502  0.97156536  0.55891291     0.16300
C642        C  0.27978078  0.96538862  0.59618965    -0.32700
C643        C  0.27554242  0.97993583  0.63702425     0.20700
C644        C  0.25488059  0.99986093  0.64052788     0.02900
C645        C  0.23797526  0.00670341  0.60267888    -0.22500
C646        C  0.24214319  0.99199990  0.56177786     0.12100
S647        S  0.26239368  0.95395113  0.50847176    -0.06100
C648        C  0.23509431  0.97443344  0.49039769    -0.09600
C649        C  0.22663417  0.99410321  0.52207455    -0.26200
S650        S  0.25077931  0.01249264  0.69469534    -0.03400
C651        C  0.27739349  0.99093955  0.71262305    -0.16800
C652        C  0.28888246  0.97511036  0.67803218    -0.14800
H653        H  0.29523079  0.94913173  0.59401329     0.20500
H654        H  0.22157688  0.02195045  0.60556230     0.16600
H655        H  0.20922222  0.00804734  0.51728832     0.19100
H656        H  0.30468135  0.95940401  0.68331215     0.12400
C657        C  0.29500617  0.88134383  0.28899160     0.16300
C658        C  0.30913752  0.85963966  0.26723299    -0.32700
C659        C  0.33769972  0.85717316  0.27527495     0.20700
C660        C  0.35146094  0.87535277  0.30408359     0.02900
C661        C  0.33743575  0.89741321  0.32500439    -0.22500
C662        C  0.30893742  0.90007756  0.31661116     0.12100
S663        S  0.26013124  0.88660732  0.28628257    -0.06100
C664        C  0.26436196  0.91464835  0.32209743    -0.09600
C665        C  0.29149396  0.91960244  0.33512542    -0.26200
S666        S  0.38595295  0.86856846  0.31032851    -0.03400
C667        C  0.38205790  0.84139671  0.27275711    -0.16800
C668        C  0.35522777  0.83776067  0.25675807    -0.14800
H669        H  0.29828665  0.84513527  0.24542736     0.20500
H670        H  0.34823727  0.91173332  0.34719560     0.16600
H671        H  0.29787082  0.93558904  0.35882161     0.19100
H672        H  0.34901153  0.82210901  0.23233671     0.12400
C673        C  0.38593210  0.35786492  0.35829213     0.16300
C674        C  0.36099601  0.37087853  0.34442173    -0.32700
C675        C  0.35448749  0.39690098  0.36369153     0.20700
C676        C  0.37166424  0.40870188  0.39639161     0.02900
C677        C  0.39600438  0.39548681  0.41091800    -0.22500
C678        C  0.40295591  0.37023026  0.39054486     0.12100
S679        S  0.40006086  0.32849249  0.33448062    -0.06100
C680        C  0.42946662  0.33385397  0.36713717    -0.09600
C681        C  0.42765640  0.35657857  0.39586301    -0.26200
S682        S  0.36262229  0.44138985  0.41207515    -0.03400
C683        C  0.33548535  0.43990674  0.37372788    -0.16800
C684        C  0.33326771  0.41473983  0.35080800    -0.14800
H685        H  0.34814207  0.36194763  0.31788444     0.20500
H686        H  0.40988864  0.40538656  0.43501276     0.16600
H687        H  0.44445731  0.36392093  0.41728739     0.19100
H688        H  0.31849081  0.41062074  0.32370962     0.12400
C689        C  0.36593878  0.07549617  0.90345352     0.16300
C690        C  0.38981218  0.08901167  0.91849170    -0.32700
C691        C  0.39702300  0.11371023  0.89643311     0.20700
C692        C  0.38068557  0.12524266  0.86207182     0.02900
C693        C  0.35612032  0.11214233  0.84805882    -0.22500
C694        C  0.34939237  0.08673680  0.86903043     0.12100
S695        S  0.35707774  0.04288371  0.91998773    -0.06100
C696        C  0.33096817  0.04394594  0.87970137    -0.09600
C697        C  0.32879670  0.06878826  0.85577119    -0.26200
S698        S  0.39527249  0.15344346  0.83572955    -0.03400
C699        C  0.42390376  0.14881350  0.87045536    -0.16800
C700        C  0.42157165  0.12725766  0.90163884    -0.14800
H701        H  0.40330897  0.07960787  0.94397237     0.20500
H702        H  0.34386551  0.12036500  0.81993854     0.16600
H703        H  0.31470435  0.07246490  0.82741588     0.19100
H704        H  0.43800436  0.12045130  0.92452681     0.12400
C705        C  0.49401781  0.28008772  0.12706446     0.16300
C706        C  0.49924733  0.28279840  0.08001600    -0.32700
C707        C  0.49369116  0.25986896  0.05192545     0.20700
C708        C  0.48267399  0.23559658  0.06967431     0.02900
C709        C  0.47771209  0.23280901  0.11670310    -0.22500
C710        C  0.48394715  0.25544917  0.14491999     0.12100
S711        S  0.50047573  0.30497712  0.16732725    -0.06100
C712        C  0.49030236  0.28163509  0.20877198    -0.09600
C713        C  0.48199053  0.25614179  0.19171701    -0.26200
S714        S  0.47768290  0.21002013  0.03017420    -0.03400
C715        C  0.49133532  0.23190602  0.98959354    -0.16800
C716        C  0.49904607  0.25772466  0.00593977    -0.14800
H717        H  0.50785907  0.30171921  0.06608018     0.20500
H718        H  0.46990013  0.21358896  0.13083912     0.16600
H719        H  0.47541031  0.23878870  0.21260011     0.19100
H720        H  0.50866864  0.27375846  0.98547781     0.12400
C721        C  0.50098135  0.19962200  0.62957244     0.16300
C722        C  0.51298489  0.20134140  0.58594499    -0.32700
C723        C  0.50294726  0.22185822  0.55567808     0.20700
C724        C  0.48130065  0.23930033  0.56773428     0.02900
C725        C  0.46953217  0.23779320  0.61150891    -0.22500
C726        C  0.48014263  0.21786671  0.64224039     0.12100
S727        S  0.51142699  0.17745737  0.67236966    -0.06100
C728        C  0.48823789  0.19364554  0.70818405    -0.09600
C729        C  0.47297130  0.21471219  0.68738853    -0.26200
S730        S  0.47181692  0.26251154  0.52589341    -0.03400
C731        C  0.49791511  0.24928811  0.49232645    -0.16800
C732        C  0.51281936  0.22776730  0.51268038    -0.14800
H733        H  0.52987942  0.18773223  0.57640865     0.20500
H734        H  0.45322906  0.25197860  0.62154817     0.16600
H735        H  0.45825395  0.22784317  0.70499528     0.19100
H736        H  0.52998698  0.21702756  0.49679408     0.12400
C737        C  0.84835760  0.89172096  0.71846899     0.16300
C738        C  0.86115977  0.86690588  0.73358447    -0.32700
C739        C  0.88759256  0.86041115  0.71604643     0.20700
C740        C  0.90002243  0.87746528  0.68385501     0.02900
C741        C  0.88691146  0.90150606  0.66778135    -0.22500
C742        C  0.86123065  0.90847459  0.68641293     0.12100
S743        S  0.81877431  0.90622452  0.74077963    -0.06100
C744        C  0.82469475  0.93535651  0.70761244    -0.09600
C745        C  0.84773531  0.93316971  0.67986125    -0.26200
S746        S  0.93318437  0.86874109  0.67079687    -0.03400
C747        C  0.93091948  0.84177809  0.70928421    -0.16800
C748        C  0.90524138  0.83939401  0.73037952    -0.14800
H749        H  0.85179516  0.85423455  0.75992266     0.20500
H750        H  0.89722438  0.91527677  0.64402117     0.16600
H751        H  0.85552040  0.94983636  0.65858621     0.19100
H752        H  0.90053281  0.82456722  0.75713076     0.12400
C753        C  0.67616020  0.09996671  0.78808578     0.16300
C754        C  0.66147157  0.12086165  0.81063512    -0.32700
C755        C  0.63307359  0.12316138  0.80161963     0.20700
C756        C  0.61980622  0.10554573  0.77125770     0.02900
C757        C  0.63443443  0.08425797  0.74922625    -0.22500
C758        C  0.66290665  0.08183494  0.75852086     0.12100
S759        S  0.71099828  0.09502070  0.79264128    -0.06100
C760        C  0.70780182  0.06798443  0.75475971    -0.09600
C761        C  0.68098434  0.06304138  0.73973467    -0.26200
S762        S  0.58521522  0.11209053  0.76483418    -0.03400
C763        C  0.58870131  0.13843026  0.80417342    -0.16800
C764        C  0.61532014  0.14194151  0.82081904    -0.14800
H765        H  0.67179780  0.13489619  0.83392645     0.20500
H766        H  0.62413304  0.07033808  0.72572074     0.16600
H767        H  0.67526740  0.04740290  0.71496101     0.19100
H768        H  0.62125946  0.15710228  0.84625782     0.12400
C769        C  0.59243835  0.85796440  0.22039798     0.16300
C770        C  0.61737950  0.87080127  0.23376187    -0.32700
C771        C  0.62419499  0.89627645  0.21278780     0.20700
C772        C  0.60742968  0.90765404  0.17879827     0.02900
C773        C  0.58328685  0.89435697  0.16431675    -0.22500
C774        C  0.57589431  0.86977153  0.18657972     0.12100
S775        S  0.57760530  0.82980875  0.24681622    -0.06100
C776        C  0.54856711  0.83498062  0.21301463    -0.09600
C777        C  0.55101256  0.85662910  0.18202603    -0.26200
S778        S  0.61636240  0.94023473  0.16207452    -0.03400
C779        C  0.64287584  0.93915820  0.20163450    -0.16800
C780        C  0.64507433  0.91420586  0.22554056    -0.14800
H781        H  0.62983589  0.86237288  0.26147323     0.20500
H782        H  0.56967862  0.90392759  0.13917194     0.16600
H783        H  0.53453995  0.86365158  0.15940253     0.19100
H784        H  0.65947377  0.91040206  0.25342366     0.12400
C785        C  0.62942100  0.15138787  0.28765022     0.16300
C786        C  0.62199387  0.17953031  0.28759796    -0.32700
C787        C  0.59715932  0.18694020  0.30914205     0.20700
C788        C  0.58047858  0.16729238  0.32994222     0.02900
C789        C  0.58829508  0.13927031  0.33103239    -0.22500
C790        C  0.61309298  0.13181751  0.30943974     0.12100
S791        S  0.65701363  0.13772538  0.25907530    -0.06100
C792        C  0.64652343  0.10532840  0.27694846    -0.09600
C793        C  0.62313510  0.10539207  0.30417722    -0.26200
S794        S  0.55062440  0.18038377  0.35268703    -0.03400
C795        C  0.56095539  0.21273079  0.33466901    -0.16800
C796        C  0.58616640  0.21308806  0.31209187    -0.14800
H797        H  0.63462415  0.19486890  0.27047749     0.20500
H798        H  0.57528662  0.12384100  0.34709344     0.16600
H799        H  0.61287289  0.08692359  0.31659187     0.19100
H800        H  0.59598731  0.23157138  0.29874761     0.12400
C801        C  0.55172383  0.09843853  0.03480056     0.16300
C802        C  0.55980874  0.09104881  0.07935250    -0.32700
C803        C  0.58184725  0.07222121  0.08427086     0.20700
C804        C  0.59491324  0.06083890  0.04652372     0.02900
C805        C  0.58591407  0.06717349  0.00203965    -0.22500
C806        C  0.56423365  0.08639915  0.99709679     0.12100
S807        S  0.52923002  0.12473974  0.02162193    -0.06100
C808        C  0.53654067  0.11919995  0.96475555    -0.09600
C809        C  0.55510538  0.09782336  0.95673218    -0.26200
S810        S  0.62403044  0.04210916  0.05929588    -0.03400
C811        C  0.61849418  0.04967560  0.11602769    -0.16800
C812        C  0.59494345  0.06529423  0.12443134    -0.14800
H813        H  0.55060114  0.10095482  0.10882209     0.20500
H814        H  0.59655568  0.05890759  0.97251557     0.16600
H815        H  0.56342190  0.09270195  0.92344222     0.19100
H816        H  0.58907121  0.07310266  0.15772390     0.12400
C817        C  0.76249608  0.00635400  0.02067178     0.16300
C818        C  0.78075291  0.01097617  0.98434126    -0.32700
C819        C  0.77387452  0.99970240  0.94169054     0.20700
C820        C  0.74987305  0.98440707  0.93558576     0.02900
C821        C  0.73208284  0.97896108  0.97231743    -0.22500
C822        C  0.73893498  0.99032660  0.01498518     0.12100
S823        S  0.76557406  0.02104421  0.07336651    -0.06100
C824        C  0.73515849  0.00496986  0.08833388    -0.09600
C825        C  0.72333450  0.98904167  0.05413087    -0.26200
S826        S  0.74334655  0.97561180  0.88016576    -0.03400
C827        C  0.77340608  0.99247262  0.86511789    -0.16800
C828        C  0.78779042  0.00393992  0.90143486    -0.14800
H829        H  0.79892965  0.02379895  0.98867549     0.20500
H830        H  0.71314816  0.96736325  0.96740988     0.16600
H831        H  0.70367060  0.97847044  0.05694655     0.19100
H832        H  0.80627951  0.01640669  0.89811333     0.12400
C833        C  0.71522080  0.98491062  0.43986246     0.16300
C834        C  0.73079969  0.97718592  0.47852305    -0.32700
C835        C  0.72773776  0.99312385  0.51819353     0.20700
C836        C  0.70968428  0.01558057  0.51944467     0.02900
C837        C  0.69323524  0.02259107  0.48138473    -0.22500
C838        C  0.69654208  0.00683419  0.44153195     0.12100
S839        S  0.71917322  0.97093052  0.38673568    -0.06100
C840        C  0.69508950  0.99453228  0.36669427    -0.09600
C841        C  0.68447263  0.01208726  0.39972911    -0.26200
S842        S  0.71138736  0.03429850  0.56875447    -0.03400
C843        C  0.73648718  0.01147996  0.58803563    -0.16800
C844        C  0.74282459  0.99033889  0.55790981    -0.14800
H845        H  0.74569788  0.96035838  0.47703847     0.20500
H846        H  0.67946528  0.04038149  0.48209347     0.16600
H847        H  0.67030300  0.02909612  0.39279858     0.19100
H848        H  0.75863596  0.97470178  0.56377901     0.12400
C849        C  0.08736483  0.36209982  0.85709565     0.16300
C850        C  0.11213276  0.37489530  0.84296347    -0.32700
C851        C  0.11949950  0.40020035  0.86375050     0.20700
C852        C  0.10307841  0.41177430  0.89754024     0.02900
C853        C  0.07867051  0.39894984  0.91182188    -0.22500
C854        C  0.07108155  0.37416715  0.89053115     0.12100
S855        S  0.07312582  0.33269239  0.83384415    -0.06100
C856        C  0.04481794  0.33730800  0.86896304    -0.09600
C857        C  0.04682450  0.36019253  0.89730371    -0.26200
S858        S  0.11345855  0.44356485  0.91563722    -0.03400
C859        C  0.14021726  0.44190580  0.87701501    -0.16800
C860        C  0.14120315  0.41739807  0.85205525    -0.14800
H861        H  0.12450848  0.36609796  0.81581148     0.20500
H862        H  0.06547931  0.40855281  0.93716055     0.16600
H863        H  0.03069765  0.36698151  0.92039444     0.19100
H864        H  0.15550474  0.41342075  0.82441441     0.12400
C865        C  0.85279046  0.14729751  0.79043617     0.16300
C866        C  0.85992901  0.17537149  0.79159221    -0.32700
C867        C  0.88532462  0.18243545  0.81158883     0.20700
C868        C  0.90311594  0.16250680  0.82957301     0.02900
C869        C  0.89576243  0.13426470  0.82902271    -0.22500
C870        C  0.87008855  0.12715922  0.80918823     0.12100
S871        S  0.82372560  0.13472971  0.76466119    -0.06100
C872        C  0.83446554  0.10182393  0.77967884    -0.09600
C873        C  0.85942501  0.10089158  0.80367435    -0.26200
S874        S  0.93315409  0.17589217  0.85199335    -0.03400
C875        C  0.92110485  0.20859193  0.83771135    -0.16800
C876        C  0.89543873  0.20872009  0.81625940    -0.14800
H877        H  0.84635095  0.19107229  0.77703860     0.20500
H878        H  0.90948432  0.11854827  0.84311113     0.16600
H879        H  0.86994565  0.08198414  0.81404757     0.19100
H880        H  0.88443644  0.22725777  0.80535023     0.12400
C881        C  0.08629039  0.11936669  0.35660783     0.16300
C882        C  0.11161754  0.10729408  0.34306604    -0.32700
C883        C  0.11946089  0.08186822  0.36358285     0.20700
C884        C  0.10310073  0.06970475  0.39692961     0.02900
C885        C  0.07823530  0.08186759  0.41076048    -0.22500
C886        C  0.07004476  0.10655942  0.38937161     0.12100
S887        S  0.07123023  0.14854785  0.33312282    -0.06100
C888        C  0.04263065  0.14263128  0.36703144    -0.09600
C889        C  0.04517108  0.11964970  0.39530685    -0.26200
S890        S  0.11389216  0.03783128  0.41453836    -0.03400
C891        C  0.14057919  0.04004627  0.37590119    -0.16800
C892        C  0.14142342  0.06492763  0.35161564    -0.14800
H893        H  0.12394744  0.11658753  0.31628298     0.20500
H894        H  0.06506082  0.07170269  0.43553697     0.16600
H895        H  0.02906869  0.11221793  0.41788317     0.19100
H896        H  0.15569435  0.06929799  0.32408949     0.12400
C897        C  0.82874686  0.12934119  0.30816475     0.16300
C898        C  0.80111504  0.12063929  0.30933012    -0.32700
C899        C  0.79395817  0.09727289  0.28344987     0.20700
C900        C  0.81337755  0.08307113  0.25764864     0.02900
C901        C  0.84084205  0.09222850  0.25553068    -0.22500
C902        C  0.84799202  0.11567508  0.28124665     0.12100
S903        S  0.84224566  0.15553086  0.34048241    -0.06100
C904        C  0.87410322  0.14815129  0.31708122    -0.09600
C905        C  0.87392486  0.12676531  0.28551555    -0.26200
S906        S  0.80054749  0.05483852  0.22941385    -0.03400
C907        C  0.76855721  0.06277897  0.25161406    -0.16800
C908        C  0.76817540  0.08583775  0.27981250    -0.14800
H909        H  0.78596111  0.13130394  0.33012525     0.20500
H910        H  0.85607916  0.08131829  0.23525895     0.16600
H911        H  0.89217344  0.11856650  0.26884552     0.19100
H912        H  0.74980170  0.09414473  0.29598043     0.12400
C913        C  0.92142966  0.09602627  0.54006631     0.16300
C914        C  0.91396670  0.08809985  0.58440747    -0.32700
C915        C  0.89297032  0.06835579  0.58889992     0.20700
C916        C  0.88049175  0.05640144  0.55094792     0.02900
C917        C  0.88919369  0.06305992  0.50662302    -0.22500
C918        C  0.90960131  0.08345405  0.50210310     0.12100
S919        S  0.94162175  0.12394789  0.52764495    -0.06100
C920        C  0.93402741  0.11862602  0.47075939    -0.09600
C921        C  0.91739139  0.09591663  0.46206065    -0.26200
S922        S  0.85180353  0.03725943  0.56316886    -0.03400
C923        C  0.85682144  0.04545983  0.61986964    -0.16800
C924        C  0.87989730  0.06148391  0.62872268    -0.14800
H925        H  0.92246384  0.09855743  0.61402328     0.20500
H926        H  0.87887608  0.05448352  0.47691245     0.16600
H927        H  0.90918644  0.09057331  0.42867729     0.19100
H928        H  0.88514351  0.06995458  0.66192664     0.12400
C929        C  0.97170501  0.20030758  0.13638664     0.16300
C930        C  0.96335186  0.19996193  0.09040573    -0.32700
C931        C  0.97459719  0.22002467  0.06105799     0.20700
C932        C  0.99395730  0.23908825  0.07627742     0.02900
C933        C  0.00213559  0.23957750  0.12238219    -0.22500
C934        C  0.99023558  0.22005642  0.15206364     0.12100
S935        S  0.95949912  0.17855365  0.17793052    -0.06100
C936        C  0.97881293  0.19689564  0.21704015    -0.09600
C937        C  0.99413374  0.21838893  0.19846603    -0.26200
S938        S  0.00461385  0.26210280  0.03525426    -0.03400
C939        C  0.98195372  0.24649230  0.99783536    -0.16800
C940        C  0.96748979  0.22433306  0.01620528    -0.14800
H941        H  0.94819388  0.18517942  0.07828932     0.20500
H942        H  0.01655641  0.25497733  0.13483079     0.16600
H943        H  0.00705321  0.23234746  0.21806417     0.19100
H944        H  0.95189329  0.21256817  0.99800284     0.12400
C945        C  0.99719419  0.23806650  0.57689395     0.16300
C946        C  0.00449332  0.23657608  0.62342318    -0.32700
C947        C  0.99550062  0.25814063  0.65204518     0.20700
C948        C  0.98084135  0.28072323  0.63486815     0.02900
C949        C  0.97354214  0.28219760  0.58842939    -0.22500
C950        C  0.98158742  0.26014602  0.56019425     0.12100
S951        S  0.00391753  0.21289301  0.53720224    -0.06100
C952        C  0.98454991  0.23182986  0.49841215    -0.09600
C953        C  0.97408777  0.25653877  0.51532899    -0.26200
S954        S  0.97105228  0.30428923  0.67533104    -0.03400
C955        C  0.98586766  0.28299496  0.71616664    -0.16800
C956        C  0.99829754  0.25925558  0.69875891    -0.14800
H957        H  0.01574942  0.21887168  0.63704233     0.20500
H958        H  0.96118406  0.29927336  0.57523059     0.16600
H959        H  0.96076455  0.27059398  0.49622300     0.19100
H960        H  0.00806701  0.24321702  0.71938655     0.12400
C961        C  0.85385217  0.58895134  0.22522452     0.16300
C962        C  0.86554410  0.61456063  0.23778176    -0.32700
C963        C  0.89085754  0.62207404  0.21751892     0.20700
C964        C  0.90330627  0.60516135  0.18521407     0.02900
C965        C  0.89143680  0.58001835  0.17215003    -0.22500
C966        C  0.86684569  0.57212504  0.19345619     0.12100
S967        S  0.82518030  0.57414005  0.24954910    -0.06100
C968        C  0.83155551  0.54482329  0.21752441    -0.09600
C969        C  0.85424446  0.54694523  0.18899708    -0.26200
S970        S  0.93520705  0.61562867  0.16836314    -0.03400
C971        C  0.93249552  0.64286656  0.20598230    -0.16800
C972        C  0.90748536  0.64417850  0.22921324    -0.14800
H973        H  0.85613943  0.62729710  0.26392811     0.20500
H974        H  0.90182751  0.56637753  0.14832342     0.16600
H975        H  0.86198056  0.53029027  0.16773655     0.19100
H976        H  0.90283414  0.65886781  0.25605631     0.12400
C977        C  0.67926899  0.38310251  0.28439806     0.16300
C978        C  0.66515965  0.36204657  0.30751369    -0.32700
C979        C  0.63749207  0.35744187  0.29548835     0.20700
C980        C  0.62440211  0.37290619  0.26153416     0.02900
C981        C  0.63848338  0.39430406  0.23863634    -0.22500
C982        C  0.66620439  0.39917284  0.25112977     0.12100
S983        S  0.71324904  0.39069645  0.29293433    -0.06100
C984        C  0.70999414  0.41622724  0.25189144    -0.09600
C985        C  0.68375112  0.41864200  0.23262853    -0.26200
S986        S  0.59051804  0.36405450  0.25273241    -0.03400
C987        C  0.59399122  0.33979719  0.29605318    -0.16800
C988        C  0.62020672  0.33853004  0.31541376    -0.14800
H989        H  0.67535573  0.34972876  0.33377248     0.20500
H990        H  0.62828187  0.40662520  0.21240345     0.16600
H991        H  0.67824132  0.43283807  0.20520551     0.19100
H992        H  0.62605853  0.32513139  0.34373972     0.12400
C993        C  0.84893088  0.33312902  0.30069988     0.16300
C994        C  0.85536953  0.30486327  0.30266155    -0.32700
C995        C  0.88143233  0.29730955  0.31990482     0.20700
C996        C  0.90047487  0.31691505  0.33428559     0.02900
C997        C  0.89385126  0.34526346  0.33298530    -0.22500
C998        C  0.86757821  0.35284165  0.31616375     0.12100
S999        S  0.81933947  0.34647072  0.27723467    -0.06100
C1000       C  0.83191157  0.37896717  0.28915499    -0.09600
C1001       C  0.85765227  0.37929400  0.31032937    -0.26200
S1002       S  0.93115253  0.30317513  0.35359987    -0.03400
C1003       C  0.91773764  0.27075768  0.34316225    -0.16800
C1004       C  0.89117334  0.27087434  0.32503009    -0.14800
H1005       H  0.84082547  0.28942632  0.29071336     0.20500
H1006       H  0.90857047  0.36071915  0.34422498     0.16600
H1007       H  0.86929663  0.39788869  0.31787534     0.19100
H1008       H  0.87938040  0.25247811  0.31676715     0.12400
C1009       C  0.90656540  0.39590711  0.00476861     0.16300
C1010       C  0.88806681  0.41605910  0.02057499    -0.32700
C1011       C  0.88382611  0.41767012  0.06781820     0.20700
C1012       C  0.89842593  0.40093957  0.09833692     0.02900
C1013       C  0.91705434  0.38074021  0.08250587    -0.22500
C1014       C  0.92021460  0.37817475  0.03495431     0.12100
S1015       S  0.91181484  0.38877089  0.94847298    -0.06100
C1016       C  0.93141411  0.36065747  0.96545033    -0.09600
C1017       C  0.93445133  0.35766422  0.01247517    -0.26200
S1018       S  0.88907513  0.40520711  0.15418469    -0.03400
C1019       C  0.86434951  0.42869016  0.13575659    -0.16800
C1020       C  0.86410402  0.43345135  0.08904015    -0.14800
H1021       H  0.87635784  0.42893070  0.99687862     0.20500
H1022       H  0.92745444  0.36669803  0.10605073     0.16600
H1023       H  0.94527375  0.34067049  0.02920731     0.19100
H1024       H  0.84929750  0.44665134  0.07131793     0.12400
C1025       C  0.58954457  0.62227925  0.72560444     0.16300
C1026       C  0.61398234  0.60856559  0.73997132    -0.32700
C1027       C  0.61999982  0.58252194  0.72039158     0.20700
C1028       C  0.60267344  0.57116239  0.68747228     0.02900
C1029       C  0.57881289  0.58500094  0.67262384    -0.22500
C1030       C  0.57255563  0.61047949  0.69272599     0.12100
S1031       S  0.57607453  0.65212228  0.74889270    -0.06100
C1032       C  0.54711354  0.64783174  0.71470429    -0.09600
C1033       C  0.54857974  0.62504983  0.68613030    -0.26200
S1034       S  0.61122935  0.53850443  0.67103870    -0.03400
C1035       C  0.63854998  0.53955569  0.70898614    -0.16800
C1036       C  0.64105911  0.56442833  0.73261445    -0.14800
H1037       H  0.62694384  0.61712667  0.76670457     0.20500
H1038       H  0.56488526  0.57558119  0.64806743     0.16600
H1039       H  0.53189767  0.61828944  0.66392478     0.19100
H1040       H  0.65608136  0.56822860  0.75947945     0.12400
C1041       C  0.60378056  0.34773368  0.81967995     0.16300
C1042       C  0.58084328  0.33473427  0.83958614    -0.32700
C1043       C  0.57491134  0.30752644  0.82593551     0.20700
C1044       C  0.59141125  0.29377449  0.79451403     0.02900
C1045       C  0.61420581  0.30677556  0.77453820    -0.22500
C1046       C  0.61986526  0.33404972  0.78764959     0.12100
S1047       S  0.61348650  0.38121605  0.82933536    -0.06100
C1048       C  0.63894497  0.37689473  0.78880019    -0.09600
C1049       C  0.64011139  0.35061673  0.76995521    -0.26200
S1050       S  0.58212047  0.26034232  0.78461920    -0.03400
C1051       C  0.55554148  0.26490044  0.82289659    -0.16800
C1052       C  0.55390300  0.29110079  0.84193059    -0.14800
H1053       H  0.56805978  0.34542814  0.86427482     0.20500
H1054       H  0.62691842  0.29612213  0.74969065     0.16600
H1055       H  0.65402775  0.34443666  0.74285930     0.19100
H1056       H  0.53932060  0.29717406  0.86811208     0.12400
C1057       C  0.57697034  0.40240188  0.58768030     0.16300
C1058       C  0.55661683  0.38480633  0.56996277    -0.32700
C1059       C  0.55483741  0.38231732  0.52228914     0.20700
C1060       C  0.57171670  0.39757773  0.49340385     0.02900
C1061       C  0.59200647  0.41524021  0.51111827    -0.22500
C1062       C  0.59458903  0.41679955  0.55880887     0.12100
S1063       S  0.58445442  0.40586743  0.64448192    -0.06100
C1064       C  0.61234688  0.42584408  0.62898279    -0.09600
C1065       C  0.61505590  0.43020420  0.58237605    -0.26200
S1066       S  0.56762724  0.39024993  0.43673790    -0.03400
C1067       C  0.54386656  0.36552428  0.45234535    -0.16800
C1068       C  0.53887723  0.36374214  0.49885603    -0.14800
H1069       H  0.54369664  0.37252405  0.59237407     0.20500
H1070       H  0.60609543  0.42616748  0.48873745     0.16600
H1071       H  0.63185544  0.44147949  0.56654501     0.19100
H1072       H  0.52559533  0.34849236  0.51480541     0.12400
C1073       C  0.81266330  0.39800699  0.75794346     0.16300
C1074       C  0.84086650  0.39078802  0.75625367    -0.32700
C1075       C  0.84940084  0.36659986  0.77952746     0.20700
C1076       C  0.83071225  0.35055310  0.80378053     0.02900
C1077       C  0.80255076  0.35754126  0.80493842    -0.22500
C1078       C  0.79401219  0.38149105  0.78137462     0.12100
S1079       S  0.79793318  0.42646487  0.73210117    -0.06100
C1080       C  0.76631535  0.41557047  0.75239045    -0.09600
C1081       C  0.76744158  0.39134283  0.77805158    -0.26200
S1082       S  0.84526105  0.32326932  0.83259485    -0.03400
C1083       C  0.87692972  0.33318634  0.81134735    -0.16800
C1084       C  0.87599369  0.35648346  0.78324420    -0.14800
H1085       H  0.85552369  0.40353505  0.73786186     0.20500
H1086       H  0.78793728  0.34496583  0.82375996     0.16600
H1087       H  0.74963237  0.38126270  0.79304004     0.19100
H1088       H  0.89397630  0.36636131  0.76848620     0.12400
C1089       C  0.69718566  0.47472190  0.95345632     0.16300
C1090       C  0.69708440  0.46599607  0.99934728    -0.32700
C1091       C  0.71921403  0.47432320  0.02743700     0.20700
C1092       C  0.74000117  0.49141992  0.01110684     0.02900
C1093       C  0.74016768  0.50000468  0.96519366    -0.22500
C1094       C  0.71857560  0.49088707  0.93671363     0.12100
S1095       S  0.67334630  0.46526538  0.91293490    -0.06100
C1096       C  0.69299689  0.48237668  0.87273641    -0.09600
C1097       C  0.71638827  0.49514445  0.89039556    -0.26200
S1098       S  0.76512961  0.49905000  0.05056916    -0.03400
C1099       C  0.74800235  0.47815798  0.08888769    -0.16800
C1100       C  0.72389877  0.46638088  0.07195894    -0.14800
H1101       H  0.68092799  0.45260091  0.01222987     0.20500
H1102       H  0.75685408  0.51257051  0.95190496     0.16600
H1103       H  0.73151887  0.50615272  0.87008878     0.19100
H1104       H  0.71074946  0.45241379  0.09108982     0.12400
C1105       C  0.75813108  0.46860971  0.52532868     0.16300
C1106       C  0.77581852  0.46211602  0.48897490    -0.32700
C1107       C  0.77211865  0.47653074  0.44763265     0.20700
C1108       C  0.75164778  0.49661188  0.44270780     0.02900
C1109       C  0.73446042  0.50376026  0.47965295    -0.22500
C1110       C  0.73813158  0.48922707  0.52113050     0.12100
S1111       S  0.75771900  0.45133836  0.57627749    -0.06100
C1112       C  0.73053906  0.47220214  0.59286255    -0.09600
C1113       C  0.72242878  0.49174656  0.56028548    -0.26200
S1114       S  0.74833195  0.50919143  0.38810985    -0.03400
C1115       C  0.77506171  0.48748393  0.37204800    -0.16800
C1116       C  0.78595933  0.47158488  0.40745815    -0.14800
H1117       H  0.79115851  0.44575905  0.49226867     0.20500
H1118       H  0.71825920  0.51920247  0.47569740     0.16600
H1119       H  0.70519297  0.50597535  0.56414041     0.22300
H1120       H  0.80183035  0.45585937  0.40331876     0.12400
loop_ 
_geom_bond_atom_site_label_1 
_geom_bond_atom_site_label_2 
_geom_bond_distance 
_geom_bond_site_symmetry_2 
_ccdc_geom_bond_type 
O1          Cr19   1.972       .  S
O1            C9   1.260       .  A
O2          Cr19   2.037       .  S
O2            C3   1.274       .  A
C3            O4   1.261       .  A
C3         C1080   1.473       .  S
O4          Cr20   1.966       .  S
O5          Cr20   2.009       .  S
O5            C6   1.264       .  A
C6            O7   1.255       .  A
C6         C1048   1.469       .  S
O7          Cr21   1.970       .  S
O8          Cr21   2.013       .  S
O8            C9   1.268       .  A
C9         C1096   1.474       .  S
O10         Cr19   2.033       .  S
O10          C18   1.268       .  A
O11         Cr19   2.004       .  S
O11          C12   1.263       .  A
C12          O13   1.263       .  A
C12        C1112   1.477       .  S
O13         Cr20   2.005       .  S
O14         Cr20   1.973       .  S
O14          C15   1.261       .  A
C15          O16   1.268       .  A
C15        C1064   1.464       .  S
O16         Cr21   2.018       .  S
O17         Cr21   1.957       .  S
O17          C18   1.254       .  A
C18        C1035   1.472       .  S
Cr19         O22   1.777       .  S
Cr20         O22   1.763       .  S
Cr21         O22   1.770       .  S
O23         Cr41   2.044       .  S
O23          C31   1.274       .  A
O24         Cr41   1.966       .  S
O24          C25   1.258       .  A
C25          O26   1.271       .  A
C25        C1115   1.475       .  S
O26         Cr42   2.025       .  S
O27         Cr42   1.974       .  S
O27          C28   1.258       .  A
C28          O29   1.262       .  A
C28        C1000   1.461       .  S
O29         Cr43   1.999       .  S
O30         Cr43   1.954       .  S
O30          C31   1.257       .  A
C31         C984   1.469       .  S
O32         Cr41   1.990       .  S
O32          C40   1.258       .  A
O33         Cr41   2.027       .  S
O33          C34   1.267       .  A
C34          O35   1.257       .  A
C34         C968   1.474       .  S
O35         Cr42   1.965       .  S
O36         Cr42   2.023       .  S
O36          C37   1.269       .  A
C37          O38   1.263       .  A
C37        C1019   1.468       .  S
O38         Cr43   1.976       .  S
O39         Cr43   2.010       .  S
O39          C40   1.262       .  A
C40        C1099   1.470       .  S
Cr41         O44   1.777       .  S
Cr42         O44   1.771       .  S
Cr43         O44   1.766       .  S
O45         Cr63   1.966       .  S
O45          C53   1.259       .  A
O46         Cr63   2.037       .  S
O46          C47   1.274       .  A
C47          O48   1.259       .  A
C47        C1003   1.468       .  S
O48         Cr64   1.955       .  S
O49         Cr64   2.012       .  S
O49          C50   1.263       .  A
C50          O51   1.257       .  A
C50         C904   1.471       .  S
O51         Cr65   1.973       .  S
O52         Cr65   2.013       .  S
O52          C53   1.268       .  A
C53         C936   1.469       .  S
O54         Cr63   2.028   1_455  S
O54          C62   1.267       .  A
O55         Cr63   1.994       .  S
O55          C56   1.260       .  A
C56          O57   1.262       .  A
C56         C952   1.470       .  S
O57         Cr64   2.008       .  S
O58         Cr64   1.969       .  S
O58          C59   1.260       .  A
C59          O60   1.270       .  A
C59         C920   1.464       .  S
O60         Cr65   2.018       .  S
O61         Cr65   1.966       .  S
O61          C62   1.257   1_655  A
C62         C888   1.477       .  S
Cr63         O66   1.775       .  S
Cr64         O66   1.766       .  S
Cr65         O66   1.766       .  S
O67         Cr85   2.045       .  S
O67          C75   1.275       .  A
O68         Cr85   1.966       .  S
O68          C69   1.260       .  A
C69          O70   1.271       .  A
C69         C955   1.474       .  S
O70         Cr86   2.020       .  S
O71         Cr86   1.983       .  S
O71          C72   1.258       .  A
C72          O73   1.261       .  A
C72        C1083   1.473       .  S
O73         Cr87   2.001       .  S
O74         Cr87   1.962       .  S
O74          C75   1.261       .  A
C75         C875   1.477       .  S
O76         Cr85   1.997       .  S
O76          C84   1.260       .  A
O77         Cr85   2.032   1_455  S
O77          C78   1.267       .  A
C78          O79   1.255   1_455  A
C78         C856   1.479       .  S
O79         Cr86   1.967       .  S
O80         Cr86   2.015       .  S
O80          C81   1.270       .  A
C81          O82   1.263       .  A
C81        C1016   1.467       .  S
O82         Cr87   1.978       .  S
O83         Cr87   1.999       .  S
O83          C84   1.260       .  A
C84         C939   1.469       .  S
Cr85         O88   1.779       .  S
Cr86         O88   1.770       .  S
Cr87         O88   1.767       .  S
O89        Cr107   2.041   1_545  S
O89          C97   1.276       .  A
O90        Cr107   1.966       .  S
O90          C91   1.259       .  A
C91          O92   1.268   1_565  A
C91         C840   1.468       .  S
O92        Cr108   2.012       .  S
O93        Cr108   1.981       .  S
O93          C94   1.257       .  A
C94          O95   1.260       .  A
C94         C792   1.469       .  S
O95        Cr109   2.000       .  S
O96        Cr109   1.959       .  S
O96          C97   1.259       .  A
C97         C907   1.468       .  S
O98        Cr107   1.995       .  S
O98         C106   1.258   1_565  A
O99        Cr107   2.026       .  S
O99         C100   1.267       .  A
C100        O101   1.257       .  A
C100        C779   1.476       .  S
O101       Cr108   1.967   1_565  S
O102       Cr108   2.018       .  S
O102        C103   1.270       .  A
C103        O104   1.262       .  A
C103        C811   1.465       .  S
O104       Cr109   1.973       .  S
O105       Cr109   2.002       .  S
O105        C106   1.259       .  A
C106        C824   1.467       .  S
Cr107       O110   1.778   1_565  S
Cr108       O110   1.770       .  S
Cr109       O110   1.767       .  S
O111       Cr129   1.952   1_545  S
O111        C119   1.257   1_545  A
O112       Cr129   2.036   1_545  S
O112        C113   1.274       .  A
C113        O114   1.262       .  A
C113        C760   1.468       .  S
O114       Cr130   1.966       .  S
O115       Cr130   2.001       .  S
O115        C116   1.260       .  A
C116        O117   1.258       .  A
C116        C872   1.475       .  S
O117       Cr131   1.988       .  S
O118       Cr131   2.021       .  S
O118        C119   1.271   1_545  A
C119        C827   1.469       .  S
O120       Cr129   2.025       .  S
O120        C128   1.265       .  A
O121       Cr129   1.990       .  S
O121        C122   1.258   1_565  A
C122        O123   1.259       .  A
C122        C843   1.469       .  S
O123       Cr130   2.004       .  S
O124       Cr130   1.972       .  S
O124        C125   1.263       .  A
C125        O126   1.271       .  A
C125        C923   1.463       .  S
O126       Cr131   2.018       .  S
O127       Cr131   1.967   1_565  S
O127        C128   1.256       .  A
C128        C744   1.478       .  S
Cr129       O132   1.780   1_565  S
Cr130       O132   1.767       .  S
Cr131       O132   1.774       .  S
O133       Cr151   2.037       .  S
O133        C141   1.273       .  A
O134       Cr151   1.966       .  S
O134        C135   1.260       .  A
C135        O136   1.272       .  A
C135        C728   1.475       .  S
O136       Cr152   2.026       .  S
O137       Cr152   1.966       .  S
O137        C138   1.255       .  A
C138        O139   1.265       .  A
C138        C763   1.468       .  S
O139       Cr153   2.013       .  S
O140       Cr153   1.953       .  S
O140        C141   1.256       .  A
C141       C1051   1.462       .  S
O142       Cr151   1.989       .  S
O142        C150   1.259       .  A
O143       Cr151   2.026       .  S
O143        C144   1.266       .  A
C144        O145   1.255       .  A
C144        C699   1.470       .  S
O145       Cr152   1.958       .  S
O146       Cr152   2.027       .  S
O146        C147   1.271       .  A
C147        O148   1.259       .  A
C147        C808   1.466       .  S
O148       Cr153   1.969       .  S
O149       Cr153   2.014       .  S
O149        C150   1.263       .  A
C150        C715   1.468       .  S
Cr151       O154   1.775       .  S
Cr152       O154   1.764       .  S
Cr153       O154   1.762       .  S
O155       Cr173   1.971       .  S
O155        C163   1.260       .  A
O156       Cr173   2.039       .  S
O156        C157   1.275       .  A
C157        O158   1.258       .  A
C157        C795   1.470       .  S
O158       Cr174   1.958       .  S
O159       Cr174   2.014       .  S
O159        C160   1.266       .  A
C160        O161   1.257       .  A
C160        C987   1.474       .  S
O161       Cr175   1.975       .  S
O162       Cr175   2.019       .  S
O162        C163   1.270       .  A
C163        C712   1.477       .  S
O164       Cr173   2.035       .  S
O164        C172   1.269       .  A
O165       Cr173   1.994       .  S
O165        C166   1.261       .  A
C166        O167   1.264       .  A
C166        C731   1.478       .  S
O167       Cr174   2.019       .  S
O168       Cr174   1.968       .  S
O168        C169   1.260       .  A
C169        O170   1.269       .  A
C169       C1067   1.461       .  S
O170       Cr175   2.020       .  S
O171       Cr175   1.963       .  S
O171        C172   1.256       .  A
C172        C680   1.479       .  S
Cr173       O176   1.773       .  S
Cr174       O176   1.764       .  S
Cr175       O176   1.769       .  S
O177       Cr195   2.047       .  S
O177        C185   1.277       .  A
O178       Cr195   1.967       .  S
O178        C179   1.258       .  A
C179        O180   1.266       .  A
C179        C632   1.470       .  S
O180       Cr196   2.009       .  S
O181       Cr196   1.971       .  S
O181        C182   1.254       .  A
C182        O183   1.260       .  A
C182        C600   1.460       .  S
O183       Cr197   1.995       .  S
O184       Cr197   1.954       .  S
O184        C185   1.258       .  A
C185        C664   1.470       .  S
O186       Cr195   2.002       .  S
O186        C194   1.260       .  A
O187       Cr195   2.037   1_545  S
O187        C188   1.270       .  A
C188        O189   1.254   1_545  A
C188        C891   1.474       .  S
O189       Cr196   1.952       .  S
O190       Cr196   2.017       .  S
O190        C191   1.270       .  A
C191        O192   1.264       .  A
C191        C619   1.465       .  S
O192       Cr197   1.974       .  S
O193       Cr197   2.003       .  S
O193        C194   1.260       .  A
C194        C648   1.476       .  S
Cr195       O198   1.777       .  S
Cr196       O198   1.769       .  S
Cr197       O198   1.764       .  S
O199       Cr217   1.965       .  S
O199        C207   1.260       .  A
O200       Cr217   2.035       .  S
O200        C201   1.274       .  A
C201        O202   1.262       .  A
C201        C555   1.471       .  S
O202       Cr218   1.963       .  S
O203       Cr218   2.013       .  S
O203        C204   1.264       .  A
C204        O205   1.256       .  A
C204        C571   1.476       .  S
O205       Cr219   1.976       .  S
O206       Cr219   2.027       .  S
O206        C207   1.273       .  A
C207        C651   1.476       .  S
O208       Cr217   2.020   1_545  S
O208        C216   1.264       .  A
O209       Cr217   1.990       .  S
O209        C210   1.258       .  A
C210        O211   1.261       .  A
C210        C635   1.468       .  S
O211       Cr218   2.007       .  S
O212       Cr218   1.970       .  S
O212        C213   1.260       .  A
C213        O214   1.272       .  A
C213        C587   1.469       .  S
O214       Cr219   2.030       .  S
O215       Cr219   1.961       .  S
O215        C216   1.254   1_565  A
C216        C696   1.468       .  S
Cr217       O220   1.777       .  S
Cr218       O220   1.766       .  S
Cr219       O220   1.767       .  S
O221       Cr239   2.048       .  S
O221        C229   1.277       .  A
O222       Cr239   1.956       .  S
O222        C223   1.258       .  A
C223        O224   1.272       .  A
C223        C536   1.474       .  S
O224       Cr240   2.028       .  S
O225       Cr240   1.980       .  S
O225        C226   1.256       .  A
C226        O227   1.264       .  A
C226        C488   1.477       .  S
O227       Cr241   2.013       .  S
O228       Cr241   1.956       .  S
O228        C229   1.258       .  A
C229        C568   1.469       .  S
O230       Cr239   1.989       .  S
O230        C238   1.258       .  A
O231       Cr239   2.035       .  S
O231        C232   1.268       .  A
C232        O233   1.255       .  A
C232       C1032   1.476       .  S
O233       Cr240   1.957       .  S
O234       Cr240   2.038       .  S
O234        C235   1.275       .  A
C235        O236   1.260       .  A
C235        C507   1.471       .  S
O236       Cr241   1.964       .  S
O237       Cr241   2.012       .  S
O237        C238   1.263       .  A
C238        C520   1.470       .  S
Cr239       O242   1.774       .  S
Cr240       O242   1.764       .  S
Cr241       O242   1.761       .  S
O243       Cr261   1.967       .  S
O243        C251   1.260       .  A
O244       Cr261   2.034       .  S
O244        C245   1.272       .  A
C245        O246   1.259       .  A
C245        C475   1.465       .  S
O246       Cr262   1.962       .  S
O247       Cr262   2.015       .  S
O247        C248   1.264       .  A
C248        O249   1.256       .  A
C248        C667   1.472       .  S
O249       Cr263   1.969       .  S
O250       Cr263   2.025       .  S
O250        C251   1.272       .  A
C251        C523   1.475       .  S
O252       Cr261   2.028       .  S
O252        C260   1.266       .  A
O253       Cr261   1.987       .  S
O253        C254   1.259       .  A
C254        O255   1.263       .  A
C254        C539   1.464       .  S
O255       Cr262   2.010       .  S
O256       Cr262   1.968       .  S
O256        C257   1.260       .  A
C257        O258   1.271       .  A
C257        C584   1.470       .  S
O258       Cr263   2.030       .  S
O259       Cr263   1.968       .  S
O259        C260   1.256       .  A
C260        C776   1.477       .  S
Cr261       O264   1.777       .  S
Cr262       O264   1.765       .  S
Cr263       O264   1.765       .  S
O265       Cr283   1.975       .  S
O265        C273   1.260       .  A
O266       Cr283   2.034   1_455  S
O266        C267   1.273       .  A
C267        O268   1.259       .  A
C267        C603   1.463       .  S
O268       Cr284   1.952       .  S
O269       Cr284   2.014       .  S
O269        C270   1.264       .  A
C270        O271   1.256       .  A
C270        C408   1.474       .  S
O271       Cr285   1.974       .  S
O272       Cr285   2.021   1_655  S
O272        C273   1.270       .  A
C273        C440   1.480       .  S
O274       Cr283   2.029       .  S
O274        C282   1.267       .  A
O275       Cr283   2.000       .  S
O275        C276   1.262   1_655  A
C276        O277   1.262       .  A
C276        C459   1.476   1_455  S
O277       Cr284   2.009       .  S
O278       Cr284   1.973       .  S
O278        C279   1.262       .  A
C279        O280   1.271       .  A
C279        C427   1.467       .  S
O280       Cr285   2.025       .  S
O281       Cr285   1.956   1_655  S
O281        C282   1.254       .  A
C282        C971   1.472       .  S
Cr283       O286   1.782   1_655  S
Cr284       O286   1.764       .  S
Cr285       O286   1.768       .  S
O287       Cr305   2.040   1_455  S
O287        C295   1.275       .  A
O288       Cr305   1.970       .  S
O288        C289   1.259       .  A
C289        O290   1.270       .  A
C289        C456   1.477       .  S
O290       Cr306   2.020   1_655  S
O291       Cr306   1.983       .  S
O291        C292   1.258       .  A
C292        O293   1.260       .  A
C292        C552   1.468       .  S
O293       Cr307   2.000       .  S
O294       Cr307   1.948       .  S
O294        C295   1.258       .  A
C295        C395   1.469       .  S
O296       Cr305   2.000       .  S
O296        C304   1.259   1_655  A
O297       Cr305   2.026       .  S
O297        C298   1.267       .  A
C298        O299   1.257       .  A
C298        C747   1.476       .  S
O299       Cr306   1.966   1_655  S
O300       Cr306   2.021       .  S
O300        C301   1.270       .  A
C301        O302   1.262       .  A
C301        C616   1.461       .  S
O302       Cr307   1.968       .  S
O303       Cr307   2.012       .  S
O303        C304   1.260       .  A
C304        C443   1.480   1_455  S
Cr305       O308   1.779   1_655  S
Cr306       O308   1.774       .  S
Cr307       O308   1.768       .  S
O309       Cr327   2.054       .  S
O309        C317   1.280       .  A
O310       Cr327   1.966       .  S
O310        C311   1.258       .  A
C311        O312   1.271       .  A
C311        C376   1.478       .  S
O312       Cr328   2.026       .  S
O313       Cr328   1.976       .  S
O313        C314   1.255       .  A
C314        O315   1.260       .  A
C314        C472   1.467       .  S
O315       Cr329   2.002       .  S
O316       Cr329   1.954       .  S
O316        C317   1.259       .  A
C317        C411   1.474       .  S
O318       Cr327   1.994       .  S
O318        C326   1.256       .  A
O319       Cr327   2.034       .  S
O319        C320   1.269       .  A
C320        O321   1.255       .  A
C320        C683   1.477       .  S
O321       Cr328   1.957       .  S
O322       Cr328   2.033       .  S
O322        C323   1.275       .  A
C323        O324   1.263       .  A
C323        C504   1.469       .  S
O324       Cr329   1.970       .  S
O325       Cr329   2.010       .  S
O325        C326   1.259       .  A
C326        C360   1.474       .  S
Cr327       O330   1.777       .  S
Cr328       O330   1.772       .  S
Cr329       O330   1.770       .  S
O331       Cr349   1.975       .  S
O331        C339   1.260       .  A
O332       Cr349   2.045       .  S
O332        C333   1.276       .  A
C333        O334   1.259       .  A
C333        C491   1.469       .  S
O334       Cr350   1.964       .  S
O335       Cr350   1.995       .  S
O335        C336   1.260       .  A
C336        O337   1.255       .  A
C336        C392   1.460       .  S
O337       Cr351   1.974       .  S
O338       Cr351   2.013       .  S
O338        C339   1.268       .  A
C339        C363   1.475       .  S
O340       Cr349   2.039       .  S
O340        C348   1.270       .  A
O341       Cr349   2.007       .  S
O341        C342   1.263       .  A
C342        O343   1.260       .  A
C342        C379   1.478       .  S
O343       Cr350   2.001       .  S
O344       Cr350   1.976       .  S
O344        C345   1.263       .  A
C345        O346   1.269       .  A
C345        C424   1.467       .  S
O346       Cr351   2.020       .  S
O347       Cr351   1.956       .  S
O347        C348   1.254       .  A
C348        C859   1.475       .  S
Cr349       O352   1.778       .  S
Cr350       O352   1.764       .  S
Cr351       O352   1.773       .  S
C353        S359   1.713       .  A
C353        C358   1.387       .  A
C353        C354   1.405       .  A
C354        C355   1.406       .  A
C354        H365   1.083       .  S
C355        C364   1.375       .  A
C355        C356   1.387       .  A
C356        S362   1.709       .  A
C356        C357   1.403       .  A
C357        C358   1.404       .  A
C357        H366   1.083       .  S
C358        C361   1.373       .  A
S359        C360   1.723       .  A
C360        C361   1.387       .  A
C361        H367   1.083       .  S
S362        C363   1.722       .  A
C363        C364   1.389       .  A
C364        H368   1.083       .  S
C369        S375   1.708       .  A
C369        C374   1.387       .  A
C369        C370   1.407       .  A
C370        C371   1.406       .  A
C370        H381   1.083       .  S
C371        C380   1.381       .  A
C371        C372   1.387       .  A
C372        S378   1.705       .  A
C372        C373   1.405       .  A
C373        C374   1.403       .  A
C373        H382   1.083       .  S
C374        C377   1.378       .  A
S375        C376   1.726       .  A
C376        C377   1.387       .  A
C377        H383   1.083       .  S
S378        C379   1.725   1_554  A
C379        C380   1.389   1_556  A
C380        H384   1.083       .  S
C385        S391   1.702       .  A
C385        C390   1.388       .  A
C385        C386   1.396       .  A
C386        C387   1.398       .  A
C386        H397   1.083       .  S
C387        C396   1.362       .  A
C387        C388   1.386       .  A
C388        S394   1.712       .  A
C388        C389   1.403       .  A
C389        C390   1.405       .  A
C389        H398   1.083       .  S
C390        C393   1.370       .  A
S391        C392   1.718       .  A
C392        C393   1.386       .  A
C393        H399   1.083       .  S
S394        C395   1.722       .  A
C395        C396   1.386       .  A
C396        H400   1.084       .  S
C401        S407   1.709       .  A
C401        C406   1.387       .  A
C401        C402   1.405       .  A
C402        C403   1.405       .  A
C402        H413   1.083       .  S
C403        C412   1.378       .  A
C403        C404   1.387       .  A
C404        S410   1.703       .  A
C404        C405   1.402       .  A
C405        C406   1.401       .  A
C405        H414   1.083       .  S
C406        C409   1.372       .  A
S407        C408   1.725       .  A
C408        C409   1.386       .  A
C409        H415   1.083       .  S
S410        C411   1.725       .  A
C411        C412   1.387       .  A
C412        H416   1.083       .  S
C417        S423   1.708       .  A
C417        C422   1.387   1_556  A
C417        C418   1.402   1_556  A
C418        C419   1.403       .  A
C418        H429   1.083   1_554  S
C419        C428   1.371       .  A
C419        C420   1.387       .  A
C420        S426   1.707       .  A
C420        C421   1.401       .  A
C421        C422   1.402       .  A
C421        H430   1.083       .  S
C422        C425   1.369   1_554  A
S423        C424   1.722       .  A
C424        C425   1.385       .  A
C425        H431   1.083   1_556  S
S426        C427   1.721       .  A
C427        C428   1.386       .  A
C428        H432   1.083       .  S
C433        S439   1.712   1_655  A
C433        C438   1.386       .  A
C433        C434   1.405   1_655  A
C434        C435   1.406       .  A
C434        H445   1.083       .  S
C435        C444   1.375       .  A
C435        C436   1.386   1_455  A
C436        S442   1.716       .  A
C436        C437   1.407       .  A
C437        C438   1.408       .  A
C437        H446   1.083       .  S
C438        C441   1.377       .  A
S439        C440   1.723   1_455  A
C440        C441   1.391       .  A
C441        H447   1.083       .  S
S442        C443   1.724       .  A
C443        C444   1.389   1_655  A
C444        H448   1.083       .  S
C449        S455   1.709       .  A
C449        C454   1.387       .  A
C449        C450   1.406       .  A
C450        C451   1.405   1_556  A
C450        H461   1.083       .  S
C451        C460   1.379       .  A
C451        C452   1.387   1_655  A
C452        S458   1.706       .  A
C452        C453   1.404   1_554  A
C453        C454   1.403   1_455  A
C453        H462   1.083       .  S
C454        C457   1.376       .  A
S455        C456   1.726       .  A
C456        C457   1.387       .  A
C457        H463   1.083   1_655  S
S458        C459   1.724   1_455  A
C459        C460   1.388       .  A
C460        H464   1.083       .  S
C465        S471   1.704       .  A
C465        C470   1.387       .  A
C465        C466   1.398       .  A
C466        C467   1.399       .  A
C466        H477   1.083       .  S
C467        C476   1.365       .  A
C467        C468   1.387       .  A
C468        S474   1.711       .  A
C468        C469   1.403       .  A
C469        C470   1.404       .  A
C469        H478   1.083       .  S
C470        C473   1.371       .  A
S471        C472   1.721       .  A
C472        C473   1.387       .  A
C473        H479   1.083       .  S
S474        C475   1.722       .  A
C475        C476   1.383       .  A
C476        H480   1.083       .  S
C481        S487   1.713       .  A
C481        C486   1.386       .  A
C481        C482   1.406       .  A
C482        C483   1.407       .  A
C482        H493   1.083       .  S
C483        C492   1.376       .  A
C483        C484   1.387       .  A
C484        S490   1.707       .  A
C484        C485   1.401       .  A
C485        C486   1.402       .  A
C485        H494   1.083       .  S
C486        C489   1.370       .  A
S487        C488   1.727       .  A
C488        C489   1.387       .  A
C489        H495   1.083       .  S
S490        C491   1.721       .  A
C491        C492   1.388       .  A
C492        H496   1.083       .  S
C497        S503   1.708       .  A
C497        C502   1.387       .  A
C497        C498   1.403       .  A
C498        C499   1.403       .  A
C498        H509   1.083       .  S
C499        C508   1.373       .  A
C499        C500   1.387       .  A
C500        S506   1.706       .  A
C500        C501   1.402       .  A
C501        C502   1.402       .  A
C501        H510   1.083       .  S
C502        C505   1.372       .  A
S503        C504   1.723       .  A
C504        C505   1.385       .  A
C505        H511   1.083       .  S
S506        C507   1.724       .  A
C507        C508   1.386       .  A
C508        H512   1.083       .  S
C513        S519   1.712       .  A
C513        C518   1.387       .  A
C513        C514   1.404       .  A
C514        C515   1.406       .  A
C514        H525   1.083       .  S
C515        C524   1.373       .  A
C515        C516   1.387       .  A
C516        S522   1.711       .  A
C516        C517   1.403       .  A
C517        C518   1.404       .  A
C517        H526   1.083       .  S
C518        C521   1.371       .  A
S519        C520   1.722       .  A
C520        C521   1.386       .  A
C521        H527   1.083       .  S
S522        C523   1.722       .  A
C523        C524   1.389       .  A
C524        H528   1.083       .  S
C529        S535   1.712       .  A
C529        C534   1.386       .  A
C529        C530   1.402       .  A
C530        C531   1.404   1_556  A
C530        H541   1.083   1_556  S
C531        C540   1.370       .  A
C531        C532   1.387       .  A
C532        S538   1.711       .  A
C532        C533   1.401   1_554  A
C533        C534   1.404       .  A
C533        H542   1.083       .  S
C534        C537   1.368       .  A
S535        C536   1.722       .  A
C536        C537   1.389       .  A
C537        H543   1.083       .  S
S538        C539   1.720       .  A
C539        C540   1.385       .  A
C540        H544   1.083       .  S
C545        S551   1.704       .  A
C545        C550   1.387       .  A
C545        C546   1.399       .  A
C546        C547   1.400       .  A
C546        H557   1.083       .  S
C547        C556   1.366       .  A
C547        C548   1.386       .  A
C548        S554   1.712       .  A
C548        C549   1.404       .  A
C549        C550   1.406       .  A
C549        H558   1.083       .  S
C550        C553   1.373       .  A
S551        C552   1.721       .  A
C552        C553   1.388       .  A
C553        H559   1.083       .  S
S554        C555   1.724       .  A
C555        C556   1.385       .  A
C556        H560   1.083       .  S
C561        S567   1.703       .  A
C561        C566   1.387       .  A
C561        C562   1.401       .  A
C562        C563   1.401       .  A
C562        H573   1.083       .  S
C563        C572   1.371       .  A
C563        C564   1.386       .  A
C564        S570   1.710       .  A
C564        C565   1.406       .  A
C565        C566   1.405       .  A
C565        H574   1.083       .  S
C566        C569   1.377       .  A
S567        C568   1.722       .  A
C568        C569   1.387       .  A
C569        H575   1.083       .  S
S570        C571   1.726       .  A
C571        C572   1.387       .  A
C572        H576   1.083       .  S
C577        S583   1.705       .  A
C577        C582   1.388       .  A
C577        C578   1.401   1_554  A
C578        C579   1.401       .  A
C578        H589   1.083       .  S
C579        C588   1.372       .  A
C579        C580   1.388   1_556  A
C580        S586   1.708       .  A
C580        C581   1.404       .  A
C581        C582   1.404       .  A
C581        H590   1.083       .  S
C582        C585   1.374       .  A
S583        C584   1.722       .  A
C584        C585   1.387       .  A
C585        H591   1.083       .  S
S586        C587   1.724   1_554  A
C587        C588   1.384       .  A
C588        H592   1.083       .  S
C593        S599   1.699       .  A
C593        C598   1.388       .  A
C593        C594   1.393       .  A
C594        C595   1.396       .  A
C594        H605   1.083       .  S
C595        C604   1.360       .  A
C595        C596   1.387       .  A
C596        S602   1.712       .  A
C596        C597   1.403       .  A
C597        C598   1.405       .  A
C597        H606   1.083       .  S
C598        C601   1.369       .  A
S599        C600   1.718       .  A
C600        C601   1.386       .  A
C601        H607   1.083       .  S
S602        C603   1.723       .  A
C603        C604   1.382       .  A
C604        H608   1.084       .  S
C609        S615   1.705       .  A
C609        C614   1.388       .  A
C609        C610   1.400       .  A
C610        C611   1.401       .  A
C610        H621   1.083       .  S
C611        C620   1.369       .  A
C611        C612   1.388       .  A
C612        S618   1.704       .  A
C612        C613   1.400       .  A
C613        C614   1.400       .  A
C613        H622   1.083       .  S
C614        C617   1.368       .  A
S615        C616   1.721       .  A
C616        C617   1.383       .  A
C617        H623   1.083       .  S
S618        C619   1.722       .  A
C619        C620   1.384       .  A
C620        H624   1.083       .  S
C625        S631   1.710       .  A
C625        C630   1.387       .  A
C625        C626   1.402       .  A
C626        C627   1.404       .  A
C626        H637   1.083       .  S
C627        C636   1.370       .  A
C627        C628   1.387       .  A
C628        S634   1.710       .  A
C628        C629   1.401       .  A
C629        C630   1.403       .  A
C629        H638   1.083   1_565  S
C630        C633   1.370       .  A
S631        C632   1.723       .  A
C632        C633   1.386       .  A
C633        H639   1.083   1_565  S
S634        C635   1.721   1_554  A
C635        C636   1.386   1_556  A
C636        H640   1.083   1_554  S
C641        S647   1.704       .  A
C641        C646   1.387       .  A
C641        C642   1.403       .  A
C642        C643   1.402       .  A
C642        H653   1.082       .  S
C643        C652   1.376       .  A
C643        C644   1.386       .  A
C644        S650   1.711   1_565  A
C644        C645   1.408   1_565  A
C645        C646   1.407   1_545  A
C645        H654   1.082       .  S
C646        C649   1.381       .  A
S647        C648   1.723       .  A
C648        C649   1.390       .  A
C649        H655   1.082   1_565  S
S650        C651   1.727   1_545  A
C651        C652   1.386       .  A
C652        H656   1.083       .  S
C657        S663   1.703       .  A
C657        C662   1.388       .  A
C657        C658   1.403       .  A
C658        C659   1.402       .  A
C658        H669   1.083       .  S
C659        C668   1.374       .  A
C659        C660   1.387       .  A
C660        S666   1.705       .  A
C660        C661   1.403       .  A
C661        C662   1.402       .  A
C661        H670   1.083       .  S
C662        C665   1.375       .  A
S663        C664   1.725       .  A
C664        C665   1.385       .  A
C665        H671   1.083       .  S
S666        C667   1.723       .  A
C667        C668   1.387       .  A
C668        H672   1.083       .  S
C673        S679   1.720       .  A
C673        C678   1.386       .  A
C673        C674   1.412       .  A
C674        C675   1.412       .  A
C674        H685   1.083       .  S
C675        C684   1.384       .  A
C675        C676   1.387       .  A
C676        S682   1.699       .  A
C676        C677   1.398       .  A
C677        C678   1.398       .  A
C677        H686   1.083       .  S
C678        C681   1.368       .  A
S679        C680   1.728       .  A
C680        C681   1.386       .  A
C681        H687   1.084       .  S
S682        C683   1.721       .  A
C683        C684   1.393       .  A
C684        H688   1.083       .  S
C689        S695   1.700       .  A
C689        C694   1.388       .  A
C689        C690   1.397       .  A
C690        C691   1.398       .  A
C690        H701   1.083       .  S
C691        C700   1.364       .  A
C691        C692   1.386       .  A
C692        S698   1.715       .  A
C692        C693   1.406       .  A
C693        C694   1.407       .  A
C693        H702   1.083       .  S
C694        C697   1.376       .  A
S695        C696   1.721       .  A
C696        C697   1.388       .  A
C697        H703   1.083       .  S
S698        C699   1.724       .  A
C699        C700   1.385       .  A
C700        H704   1.084       .  S
C705        S711   1.712       .  A
C705        C710   1.386       .  A
C705        C706   1.405       .  A
C706        C707   1.406       .  A
C706        H717   1.083       .  S
C707        C716   1.374       .  A
C707        C708   1.387       .  A
C708        S714   1.710       .  A
C708        C709   1.402       .  A
C709        C710   1.403       .  A
C709        H718   1.083       .  S
C710        C713   1.372       .  A
S711        C712   1.725       .  A
C712        C713   1.388       .  A
C713        H719   1.083       .  S
S714        C715   1.720   1_554  A
C715        C716   1.387   1_556  A
C716        H720   1.083   1_554  S
C721        S727   1.714       .  A
C721        C726   1.387       .  A
C721        C722   1.406       .  A
C722        C723   1.407       .  A
C722        H733   1.083       .  S
C723        C732   1.375       .  A
C723        C724   1.387       .  A
C724        S730   1.713       .  A
C724        C725   1.404       .  A
C725        C726   1.405       .  A
C725        H734   1.083       .  S
C726        C729   1.374       .  A
S727        C728   1.723       .  A
C728        C729   1.388       .  A
C729        H735   1.083       .  S
S730        C731   1.723       .  A
C731        C732   1.390       .  A
C732        H736   1.083       .  S
C737        S743   1.721       .  A
C737        C742   1.386       .  A
C737        C738   1.412       .  A
C738        C739   1.412       .  A
C738        H749   1.083       .  S
C739        C748   1.383       .  A
C739        C740   1.387       .  A
C740        S746   1.700       .  A
C740        C741   1.397       .  A
C741        C742   1.397       .  A
C741        H750   1.083       .  S
C742        C745   1.367       .  A
S743        C744   1.729       .  A
C744        C745   1.384       .  A
C745        H751   1.084       .  S
S746        C747   1.719       .  A
C747        C748   1.393       .  A
C748        H752   1.083       .  S
C753        S759   1.703       .  A
C753        C758   1.388       .  A
C753        C754   1.399       .  A
C754        C755   1.399       .  A
C754        H765   1.083       .  S
C755        C764   1.368       .  A
C755        C756   1.387       .  A
C756        S762   1.708       .  A
C756        C757   1.404       .  A
C757        C758   1.404       .  A
C757        H766   1.083       .  S
C758        C761   1.374       .  A
S759        C760   1.721       .  A
C760        C761   1.387       .  A
C761        H767   1.083       .  S
S762        C763   1.725       .  A
C763        C764   1.383       .  A
C764        H768   1.083       .  S
C769        S775   1.720       .  A
C769        C774   1.386       .  A
C769        C770   1.411       .  A
C770        C771   1.411       .  A
C770        H781   1.083       .  S
C771        C780   1.382       .  A
C771        C772   1.388       .  A
C772        S778   1.701       .  A
C772        C773   1.397       .  A
C773        C774   1.398       .  A
C773        H782   1.083       .  S
C774        C777   1.367       .  A
S775        C776   1.727       .  A
C776        C777   1.385       .  A
C777        H783   1.084       .  S
S778        C779   1.721       .  A
C779        C780   1.392       .  A
C780        H784   1.083       .  S
C785        S791   1.708       .  A
C785        C790   1.387       .  A
C785        C786   1.402       .  A
C786        C787   1.403       .  A
C786        H797   1.083       .  S
C787        C796   1.369       .  A
C787        C788   1.387       .  A
C788        S794   1.710       .  A
C788        C789   1.401       .  A
C789        C790   1.403       .  A
C789        H798   1.083       .  S
C790        C793   1.371       .  A
S791        C792   1.724       .  A
C792        C793   1.385       .  A
C793        H799   1.083       .  S
S794        C795   1.721       .  A
C795        C796   1.388       .  A
C796        H800   1.083       .  S
C801        S807   1.707       .  A
C801        C806   1.388   1_554  A
C801        C802   1.401       .  A
C802        C803   1.402       .  A
C802        H813   1.083       .  S
C803        C812   1.369       .  A
C803        C804   1.388       .  A
C804        S810   1.706       .  A
C804        C805   1.400       .  A
C805        C806   1.402   1_554  A
C805        H814   1.083   1_554  S
C806        C809   1.369       .  A
S807        C808   1.722   1_554  A
C808        C809   1.385       .  A
C809        H815   1.083       .  S
S810        C811   1.721       .  A
C811        C812   1.385       .  A
C812        H816   1.083       .  S
C817        S823   1.704       .  A
C817        C822   1.388   1_545  A
C817        C818   1.401   1_554  A
C818        C819   1.401   1_545  A
C818        H829   1.083       .  S
C819        C828   1.373   1_565  A
C819        C820   1.388       .  A
C820        S826   1.704       .  A
C820        C821   1.403       .  A
C821        C822   1.403   1_556  A
C821        H830   1.083       .  S
C822        C825   1.374       .  A
S823        C824   1.722       .  A
C824        C825   1.385   1_545  A
C825        H831   1.083       .  S
S826        C827   1.725       .  A
C827        C828   1.384   1_565  A
C828        H832   1.083       .  S
C833        S839   1.706       .  A
C833        C838   1.388   1_565  A
C833        C834   1.402       .  A
C834        C835   1.402       .  A
C834        H845   1.083       .  S
C835        C844   1.373       .  A
C835        C836   1.388   1_565  A
C836        S842   1.705       .  A
C836        C837   1.402       .  A
C837        C838   1.403       .  A
C837        H846   1.083       .  S
C838        C841   1.373       .  A
S839        C840   1.722       .  A
C840        C841   1.385   1_565  A
C841        H847   1.083       .  S
S842        C843   1.724       .  A
C843        C844   1.384   1_545  A
C844        H848   1.083       .  S
C849        S855   1.719       .  A
C849        C854   1.386       .  A
C849        C850   1.411       .  A
C850        C851   1.411       .  A
C850        H861   1.083       .  S
C851        C860   1.383       .  A
C851        C852   1.387       .  A
C852        S858   1.700       .  A
C852        C853   1.398       .  A
C853        C854   1.399       .  A
C853        H862   1.083       .  S
C854        C857   1.369       .  A
S855        C856   1.728       .  A
C856        C857   1.386       .  A
C857        H863   1.084       .  S
S858        C859   1.722       .  A
C859        C860   1.392       .  A
C860        H864   1.083       .  S
C865        S871   1.704       .  A
C865        C870   1.387       .  A
C865        C866   1.399       .  A
C866        C867   1.400       .  A
C866        H877   1.083       .  S
C867        C876   1.367       .  A
C867        C868   1.386       .  A
C868        S874   1.718       .  A
C868        C869   1.409       .  A
C869        C870   1.410       .  A
C869        H878   1.083       .  S
C870        C873   1.379       .  A
S871        C872   1.721       .  A
C872        C873   1.392       .  A
C873        H879   1.083       .  S
S874        C875   1.727       .  A
C875        C876   1.386       .  A
C876        H880   1.084       .  S
C881        S887   1.719       .  A
C881        C886   1.386       .  A
C881        C882   1.411       .  A
C882        C883   1.412       .  A
C882        H893   1.083       .  S
C883        C892   1.383       .  A
C883        C884   1.388       .  A
C884        S890   1.697       .  A
C884        C885   1.396       .  A
C885        C886   1.397       .  A
C885        H894   1.083       .  S
C886        C889   1.367       .  A
S887        C888   1.728       .  A
C888        C889   1.384       .  A
C889        H895   1.084       .  S
S890        C891   1.721       .  A
C891        C892   1.392       .  A
C892        H896   1.083       .  S
C897        S903   1.709       .  A
C897        C902   1.387       .  A
C897        C898   1.401       .  A
C898        C899   1.403       .  A
C898        H909   1.083       .  S
C899        C908   1.368       .  A
C899        C900   1.387       .  A
C900        S906   1.711       .  A
C900        C901   1.401       .  A
C901        C902   1.403       .  A
C901        H910   1.083       .  S
C902        C905   1.369       .  A
S903        C904   1.723       .  A
C904        C905   1.386       .  A
C905        H911   1.083       .  S
S906        C907   1.721       .  A
C907        C908   1.387       .  A
C908        H912   1.083       .  S
C913        S919   1.705       .  A
C913        C918   1.388       .  A
C913        C914   1.399       .  A
C914        C915   1.400       .  A
C914        H925   1.083       .  S
C915        C924   1.367       .  A
C915        C916   1.388       .  A
C916        S922   1.707       .  A
C916        C917   1.400       .  A
C917        C918   1.402       .  A
C917        H926   1.083       .  S
C918        C921   1.368       .  A
S919        C920   1.721       .  A
C920        C921   1.384       .  A
C921        H927   1.083       .  S
S922        C923   1.721       .  A
C923        C924   1.383       .  A
C924        H928   1.083       .  S
C929        S935   1.710       .  A
C929        C934   1.387       .  A
C929        C930   1.401       .  A
C930        C931   1.403       .  A
C930        H941   1.083       .  S
C931        C940   1.368       .  A
C931        C932   1.387       .  A
C932        S938   1.713   1_655  A
C932        C933   1.402   1_655  A
C933        C934   1.404   1_455  A
C933        H942   1.083       .  S
C934        C937   1.370       .  A
S935        C936   1.721       .  A
C936        C937   1.386       .  A
C937        H943   1.083   1_655  S
S938        C939   1.721   1_454  A
C939        C940   1.387   1_556  A
C940        H944   1.083   1_554  S
C945        S951   1.714   1_655  A
C945        C950   1.387       .  A
C945        C946   1.404   1_655  A
C946        C947   1.406   1_455  A
C946        H957   1.083       .  S
C947        C956   1.372       .  A
C947        C948   1.387       .  A
C948        S954   1.710       .  A
C948        C949   1.402       .  A
C949        C950   1.403       .  A
C949        H958   1.083       .  S
C950        C953   1.370       .  A
S951        C952   1.722   1_455  A
C952        C953   1.386       .  A
C953        H959   1.083       .  S
S954        C955   1.721       .  A
C955        C956   1.390       .  A
C956        H960   1.083   1_655  S
C961        S967   1.717       .  A
C961        C966   1.386       .  A
C961        C962   1.409       .  A
C962        C963   1.409       .  A
C962        H973   1.083       .  S
C963        C972   1.380       .  A
C963        C964   1.388       .  A
C964        S970   1.698       .  A
C964        C965   1.397       .  A
C965        C966   1.397       .  A
C965        H974   1.083       .  S
C966        C969   1.367       .  A
S967        C968   1.726       .  A
C968        C969   1.384       .  A
C969        H975   1.084       .  S
S970        C971   1.721       .  A
C971        C972   1.390       .  A
C972        H976   1.083       .  S
C977        S983   1.700       .  A
C977        C982   1.388       .  A
C977        C978   1.399       .  A
C978        C979   1.399       .  A
C978        H989   1.083       .  S
C979        C988   1.369       .  A
C979        C980   1.386       .  A
C980        S986   1.711       .  A
C980        C981   1.407       .  A
C981        C982   1.407       .  A
C981        H990   1.083       .  S
C982        C985   1.378       .  A
S983        C984   1.721       .  A
C984        C985   1.388       .  A
C985        H991   1.083       .  S
S986        C987   1.727       .  A
C987        C988   1.385       .  A
C988        H992   1.083       .  S
C993        S999   1.704       .  A
C993        C998   1.388       .  A
C993        C994   1.397       .  A
C994        C995   1.399       .  A
C994       H1005   1.083       .  S
C995       C1004   1.364       .  A
C995        C996   1.387       .  A
C996       S1002   1.712       .  A
C996        C997   1.403       .  A
C997        C998   1.404       .  A
C997       H1006   1.083       .  S
C998       C1001   1.370       .  A
S999       C1000   1.719       .  A
C1000      C1001   1.386       .  A
C1001      H1007   1.083       .  S
S1002      C1003   1.722       .  A
C1003      C1004   1.385       .  A
C1004      H1008   1.084       .  S
C1009      S1015   1.702   1_554  A
C1009      C1014   1.388       .  A
C1009      C1010   1.399       .  A
C1010      C1011   1.399       .  A
C1010      H1021   1.083   1_554  S
C1011      C1020   1.369       .  A
C1011      C1012   1.387       .  A
C1012      S1018   1.709       .  A
C1012      C1013   1.404       .  A
C1013      C1014   1.405       .  A
C1013      H1022   1.083       .  S
C1014      C1017   1.373       .  A
S1015      C1016   1.719       .  A
C1016      C1017   1.388   1_556  A
C1017      H1023   1.083       .  S
S1018      C1019   1.724       .  A
C1019      C1020   1.383       .  A
C1020      H1024   1.083       .  S
C1025      S1031   1.721       .  A
C1025      C1030   1.386       .  A
C1025      C1026   1.411       .  A
C1026      C1027   1.412       .  A
C1026      H1037   1.083       .  S
C1027      C1036   1.381       .  A
C1027      C1028   1.387       .  A
C1028      S1034   1.698       .  A
C1028      C1029   1.395       .  A
C1029      C1030   1.396       .  A
C1029      H1038   1.083       .  S
C1030      C1033   1.364       .  A
S1031      C1032   1.728       .  A
C1032      C1033   1.384       .  A
C1033      H1039   1.084       .  S
S1034      C1035   1.720       .  A
C1035      C1036   1.392       .  A
C1036      H1040   1.083       .  S
C1041      S1047   1.707       .  A
C1041      C1046   1.387       .  A
C1041      C1042   1.403       .  A
C1042      C1043   1.403       .  A
C1042      H1053   1.083       .  S
C1043      C1052   1.373       .  A
C1043      C1044   1.388       .  A
C1044      S1050   1.701       .  A
C1044      C1045   1.398       .  A
C1045      C1046   1.399       .  A
C1045      H1054   1.083       .  S
C1046      C1049   1.368       .  A
S1047      C1048   1.724       .  A
C1048      C1049   1.385       .  A
C1049      H1055   1.083       .  S
S1050      C1051   1.721       .  A
C1051      C1052   1.384       .  A
C1052      H1056   1.083       .  S
C1057      S1063   1.706       .  A
C1057      C1062   1.388       .  A
C1057      C1058   1.400       .  A
C1058      C1059   1.401       .  A
C1058      H1069   1.083       .  S
C1059      C1068   1.368       .  A
C1059      C1060   1.388       .  A
C1060      S1066   1.705       .  A
C1060      C1061   1.400       .  A
C1061      C1062   1.401       .  A
C1061      H1070   1.083       .  S
C1062      C1065   1.368       .  A
S1063      C1064   1.721       .  A
C1064      C1065   1.384       .  A
C1065      H1071   1.083       .  S
S1066      C1067   1.720       .  A
C1067      C1068   1.384       .  A
C1068      H1072   1.083       .  S
C1073      S1079   1.713       .  A
C1073      C1078   1.387       .  A
C1073      C1074   1.405       .  A
C1074      C1075   1.406       .  A
C1074      H1085   1.083       .  S
C1075      C1084   1.375       .  A
C1075      C1076   1.387       .  A
C1076      S1082   1.705       .  A
C1076      C1077   1.400       .  A
C1077      C1078   1.401       .  A
C1077      H1086   1.083       .  S
C1078      C1081   1.369       .  A
S1079      C1080   1.724       .  A
C1080      C1081   1.386       .  A
C1081      H1087   1.083       .  S
S1082      C1083   1.723       .  A
C1083      C1084   1.389       .  A
C1084      H1088   1.083       .  S
C1089      S1095   1.712       .  A
C1089      C1094   1.387       .  A
C1089      C1090   1.404       .  A
C1090      C1091   1.405   1_556  A
C1090      H1101   1.083   1_556  S
C1091      C1100   1.372       .  A
C1091      C1092   1.387       .  A
C1092      S1098   1.712       .  A
C1092      C1093   1.402   1_554  A
C1093      C1094   1.404       .  A
C1093      H1102   1.083       .  S
C1094      C1097   1.371       .  A
S1095      C1096   1.724       .  A
C1096      C1097   1.387       .  A
C1097      H1103   1.083       .  S
S1098      C1099   1.721       .  A
C1099      C1100   1.387       .  A
C1100      H1104   1.083       .  S
C1105      S1111   1.703       .  A
C1105      C1110   1.387       .  A
C1105      C1106   1.402       .  A
C1106      C1107   1.401       .  A
C1106      H1117   1.083       .  S
C1107      C1116   1.375       .  A
C1107      C1108   1.387       .  A
C1108      S1114   1.711       .  A
C1108      C1109   1.408       .  A
C1109      C1110   1.407       .  A
C1109      H1118   1.083       .  S
C1110      C1113   1.382       .  A
S1111      C1112   1.723       .  A
C1112      C1113   1.390       .  A
C1113      H1119   1.083       .  S
S1114      C1115   1.726       .  A
C1115      C1116   1.385       .  A
C1116      H1120   1.083       .  S
