geometry optimzed in LAMMPS
_audit_creation_date              2020-12-01 
_audit_creation_method            'lammps2cif' 
_symmetry_space_group_name_H-M    'P1' 
_symmetry_Int_Tables_number       1 
_symmetry_cell_setting            triclinic 
loop_ 
_symmetry_equiv_pos_as_xyz 
  x,y,z 
_cell_length_a                    30.68783902 
_cell_length_b                    30.681170720599802 
_cell_length_c                    169.01718205968493 
_cell_angle_alpha                 89.93886070440664 
_cell_angle_beta                  89.97403124224 
_cell_angle_gamma                 120.06608789960502 
loop_ 
_atom_site_label 
_atom_site_type_symbol 
_atom_site_fract_x 
_atom_site_fract_y 
_atom_site_fract_z 
_atom_site_charge 
Zr1        Zr  0.76168135  0.16888800  0.61302518     2.17500
O2          O  0.78318283  0.22615985  0.60180865    -0.52100
O3          O  0.67716468  0.15361710  0.61544218    -0.75300
O4          O  0.72223300  0.12252531  0.60104235    -0.82100
O5          O  0.82086870  0.27670494  0.62728495    -0.83800
O6          O  0.72779198  0.05164365  0.60067630    -0.79500
O7          O  0.77768880  0.25303953  0.61567845    -0.91100
O8          O  0.64570539  0.10100135  0.62597361    -0.77100
O9          O  0.72017195  0.08127912  0.61594344    -0.86600
O10         O  0.74756831  0.16305067  0.62693482    -0.86200
O11         O  0.81820732  0.14081026  0.60875398    -0.73000
O12         O  0.84285123  0.21617895  0.61904376    -0.85100
Zr13       Zr  0.84352129  0.09347932  0.63234827     2.26400
Zr14       Zr  0.77707990  0.05320976  0.61220311     2.06300
Zr15       Zr  0.82847534  0.20828559  0.63295333     2.10000
Zr16       Zr  0.70568452  0.07507741  0.62975419     1.78800
O17         O  0.91159824  0.27868483  0.63608253    -0.93900
O18         O  0.62870852  0.00096482  0.62530009    -0.41700
O19         O  0.78588518  0.12068138  0.63589264    -0.78400
O20         O  0.76162436  0.04450032  0.62619297    -0.97100
O21         O  0.85794498  0.09939811  0.61840055    -0.90400
O22         O  0.88620770  0.18115536  0.62928582    -0.93200
C23         C  0.64297636  0.12945289  0.62066827     1.00500
C24         C  0.80120431  0.28501067  0.62118506     1.13500
C25         C  0.71289082  0.08094807  0.59781771     1.04300
O26         O  0.70568275  0.96820026  0.61097939    -0.95400
O27         O  0.80197316  0.99267219  0.61637495    -0.91100
O28         O  0.82981111  0.01097623  0.62903086    -0.84300
C29         C  0.81855329  0.98375126  0.62280360     1.10900
O30         O  0.91983304  0.24909257  0.60479411    -0.97300
Zr31       Zr  0.89815488  0.18652590  0.61522914     1.88900
O32         O  0.93408506  0.12465815  0.63129340    -0.74000
O33         O  0.81872320  0.04314769  0.60064442    -0.53300
O34         O  0.92374269  0.15681916  0.60373480    -0.97900
O35         O  0.97024121  0.26950695  0.61799997    -0.55100
O36         O  0.96348198  0.17307914  0.62026714    -0.74500
C37         C  0.96891988  0.15069145  0.62623849     0.97800
O38         O  0.85843940  0.05282374  0.64361972    -0.63300
O39         O  0.79331079  0.24051844  0.64273367    -0.58100
O40         O  0.83350344  0.11126508  0.64623257    -0.94800
O41         O  0.83226053  0.18456433  0.64650303    -0.93200
O42         O  0.68702199  0.09553009  0.64278414    -0.93600
O43         O  0.67485301  0.00246952  0.63852847    -0.92400
C44         C  0.83090496  0.14658064  0.64993953     1.16700
H45         H  0.72846352  0.17863709  0.62859932     0.32600
H46         H  0.74607532  0.00944802  0.62768634     0.43500
H47         H  0.91742145  0.19945916  0.63216732     0.37000
H48         H  0.82292959  0.14491052  0.60310470     0.33500
H49         H  0.60132534  0.00135609  0.62834457     0.25300
H50         H  0.79287147  0.01132910  0.59818212     0.31200
H51         H  0.96084980  0.17323793  0.60413508     0.37100
H52         H  0.65151213  0.06973490  0.64382323     0.31600
H53         H  0.81797161  0.27697533  0.64313147     0.30500
H54         H  0.92140898  0.30047736  0.63132750     0.32100
H55         H  0.99924635  0.26953149  0.61542171     0.31100
H56         H  0.70562293  0.00447474  0.64075844     0.35100
H57         H  0.82764189  0.01951240  0.64416922     0.27800
H58         H  0.75067018  0.21903627  0.59948447     0.32100
H59         H  0.95038311  0.25259321  0.60220626     0.34900
H60         H  0.76339693  0.23868294  0.64018260     0.27500
H61         H  0.88487820  0.04533606  0.64190002     0.40400
H62         H  0.67852757  0.96869652  0.61406924     0.30500
H63         H  0.62374551  0.00873344  0.61979825     0.38100
H64         H  0.97670873  0.26938548  0.62373261     0.29900
H65         H  0.82268936  0.06974307  0.59690203     0.30000
H66         H  0.79841037  0.21409315  0.59783445     0.30300
Zr67       Zr  0.80329388  0.21479071  0.70058660     2.17500
O68         O  0.79267824  0.26721903  0.69077039    -0.52100
O69         O  0.71425785  0.19200536  0.70244978    -0.75300
O70         O  0.79427335  0.18207118  0.68696219    -0.82100
O71         O  0.86337917  0.32645652  0.71512641    -0.83800
O72         O  0.79291768  0.10737959  0.68738404    -0.79500
O73         O  0.82867737  0.30235605  0.70287379    -0.91100
O74         O  0.68735501  0.15179753  0.71423087    -0.77100
O75         O  0.75635167  0.12884655  0.70454751    -0.86600
O76         O  0.79408794  0.21627620  0.71458866    -0.86200
O77         O  0.85817032  0.18226234  0.69713219    -0.73000
O78         O  0.88759479  0.26016525  0.70613868    -0.85100
Zr79       Zr  0.87987884  0.13721623  0.72074452     2.26400
Zr80       Zr  0.80967063  0.09546731  0.70104757     2.06300
Zr81       Zr  0.87696841  0.25981926  0.72020845     2.10000
Zr82       Zr  0.74864227  0.13064194  0.71862293     1.78800
O83         O  0.95524352  0.34023010  0.72061509    -0.93900
O84         O  0.67214724  0.05079774  0.71605275    -0.41700
O85         O  0.83032154  0.17409254  0.72457606    -0.78400
O86         O  0.79719121  0.09274285  0.71505684    -0.97100
O87         O  0.89157598  0.13748439  0.70683702    -0.90400
O88         O  0.92732663  0.22340201  0.71686405    -0.93200
C89         C  0.68182040  0.17294098  0.70811392     1.00500
C90         C  0.84625700  0.33371559  0.70862147     1.13500
C91         C  0.79321717  0.14379493  0.68359689     1.04300
O92         O  0.72354153  0.02608447  0.69982719    -0.95400
O93         O  0.82147677  0.02868175  0.70640193    -0.91100
O94         O  0.86330755  0.05233508  0.71813229    -0.84300
C95         C  0.84115909  0.02049757  0.71252971     1.10900
O96         O  0.96943120  0.28689884  0.69266178    -0.97300
Zr97       Zr  0.93902400  0.22327217  0.70308378     1.88900
O98         O  0.96151483  0.14510771  0.71875252    -0.74000
O99         O  0.84032763  0.05548839  0.69187196    -0.53300
O100        O  0.95884133  0.19223983  0.69112008    -0.97900
O101        O  0.01803304  0.29804104  0.70673170    -0.55100
O102        O  0.99174508  0.18880015  0.70726879    -0.74500
C103        C  0.99385912  0.16322947  0.71313361     0.97800
O104        O  0.85121582  0.08545226  0.73265278    -0.63300
O105        O  0.84012739  0.27927950  0.73146606    -0.58100
O106        O  0.92507281  0.18701727  0.73223230    -0.94800
O107        O  0.92232215  0.25955240  0.73214496    -0.93200
O108        O  0.72750633  0.16420328  0.73011099    -0.93600
O109        O  0.72483765  0.07277717  0.72977833    -0.92400
C110        C  0.93580141  0.22967602  0.73524104     1.16700
H111        H  0.77600370  0.23347460  0.71596895     0.32600
H112        H  0.77940038  0.05831864  0.71689941     0.43500
H113        H  0.95974658  0.24053375  0.71943870     0.37000
H114        H  0.86828666  0.18670032  0.69166761     0.33500
H115        H  0.64618586  0.05142430  0.71945698     0.25300
H116        H  0.81161369  0.03424231  0.68835730     0.31200
H117        H  0.99542446  0.20461348  0.69144679     0.37100
H118        H  0.69114503  0.14075062  0.73100126     0.31600
H119        H  0.85624786  0.31645356  0.73144312     0.30500
H120        H  0.95359725  0.35590946  0.72564008     0.32100
H121        H  0.03351530  0.28662204  0.71076484     0.31100
H122        H  0.75223342  0.09044805  0.73367961     0.35100
H123        H  0.84121635  0.10409259  0.73631208     0.27800
H124        H  0.76170757  0.24443076  0.68779962     0.32100
H125        H  0.00330162  0.29296263  0.69121529     0.34900
H126        H  0.80478690  0.26721994  0.72992059     0.27500
H127        H  0.81889156  0.05547983  0.73115277     0.40400
H128        H  0.72645189  0.00030699  0.69672319     0.30500
H129        H  0.66221596  0.05390333  0.71060051     0.38100
H130        H  0.00787410  0.31938861  0.70967912     0.29900
H131        H  0.86498294  0.08309973  0.68844808     0.30000
H132        H  0.82053259  0.27775885  0.68692928     0.30300
Zr133      Zr  0.79936685  0.56927663  0.61297985     2.17500
O134        O  0.74856682  0.53593416  0.60105297    -0.52100
O135        O  0.80929717  0.49730634  0.61528460    -0.75300
O136        O  0.85094471  0.57579685  0.60158122    -0.82100
O137        O  0.68723231  0.52371802  0.62657191    -0.83800
O138        O  0.92132194  0.65331258  0.60151533    -0.79500
O139        O  0.71195771  0.50533088  0.61495270    -0.91100
O140        O  0.86229649  0.51639690  0.62571750    -0.77100
O141        O  0.88581203  0.61152575  0.61665291    -0.86600
O142        O  0.79951980  0.55804653  0.62696190    -0.86200
O143        O  0.83289942  0.65521433  0.60897195    -0.73000
O144        O  0.75301764  0.60486441  0.61874288    -0.85100
Zr145      Zr  0.87425728  0.72533519  0.63264851     2.26400
Zr146      Zr  0.91911541  0.69825287  0.61325199     2.06300
Zr147      Zr  0.75647795  0.59698469  0.63278264     2.10000
Zr148      Zr  0.88623585  0.60035273  0.63047735     1.78800
O149        O  0.68998724  0.61499811  0.63619837    -0.93900
O150        O  0.96693650  0.61029437  0.62644069    -0.41700
O151        O  0.84312636  0.63924177  0.63610429    -0.78400
O152        O  0.92166201  0.68832534  0.62730199    -0.97100
O153        O  0.87308367  0.73497668  0.61870601    -0.90400
O154        O  0.78740672  0.68309831  0.62908294    -0.93200
C155        C  0.83402459  0.48661937  0.62024851     1.00500
C156        C  0.67894610  0.49726390  0.62028927     1.13500
C157        C  0.89308818  0.60923103  0.59857827     1.04300
O158        O  0.00191128  0.70724634  0.61153340    -0.95400
O159        O  0.98620025  0.77881743  0.61834361    -0.91100
O160        O  0.96105634  0.78899840  0.63047878    -0.84300
C161        C  0.99322482  0.80311200  0.62486067     1.10900
O162        O  0.72807118  0.65179001  0.60396978    -0.97300
Zr163      Zr  0.78664972  0.69039348  0.61494807     1.88900
O164        O  0.85251415  0.79122304  0.63017753    -0.74000
O165        O  0.93048534  0.75514333  0.60238285    -0.53300
O166        O  0.81212862  0.74367856  0.60318878    -0.97900
O167        O  0.70476706  0.68002557  0.61839293    -0.55100
O168        O  0.80844310  0.77376959  0.61873341    -0.74500
C169        C  0.83136686  0.80240209  0.62457981     0.97800
O170        O  0.91258864  0.78211187  0.64386216    -0.63300
O171        O  0.71524962  0.52771266  0.64220337    -0.58100
O172        O  0.84984963  0.69964906  0.64642827    -0.94800
O173        O  0.78385395  0.61966634  0.64651025    -0.93200
O174        O  0.85996087  0.54855904  0.64237694    -0.93600
O175        O  0.94314092  0.62809572  0.64176347    -0.92400
C176        C  0.81812648  0.65912161  0.65005851     1.16700
H177        H  0.78243782  0.52292693  0.62845548     0.32600
H178        H  0.95596327  0.70541213  0.62919214     0.43500
H179        H  0.76977997  0.69753598  0.63174738     0.37000
H180        H  0.83131580  0.65717868  0.60328183     0.33500
H181        H  0.97228350  0.58779766  0.63000956     0.25300
H182        H  0.93215176  0.78495302  0.60494370     0.31200
H183        H  0.79154998  0.76028468  0.60324654     0.37100
H184        H  0.82476729  0.54039847  0.64326858     0.31600
H185        H  0.67918056  0.51775201  0.64208525     0.30500
H186        H  0.68560310  0.60941500  0.64198440     0.32100
H187        H  0.71150047  0.70499205  0.62261015     0.31100
H188        H  0.93619315  0.65232014  0.64456153     0.35100
H189        H  0.94317844  0.78063053  0.64524679     0.27800
H190        H  0.75488028  0.50901182  0.59917988     0.32100
H191        H  0.71245294  0.67289031  0.60311304     0.34900
H192        H  0.71670383  0.49911837  0.63976864     0.27500
H193        H  0.92518657  0.81663730  0.64180065     0.40400
H194        H  0.00158782  0.68095078  0.61496358     0.30500
H195        H  0.96053972  0.59381579  0.62119996     0.38100
H196        H  0.68672608  0.64697837  0.62109547     0.29900
H197        H  0.96521062  0.76709883  0.60048846     0.30000
H198        H  0.76454794  0.56301198  0.59704103     0.30300
Zr199      Zr  0.77825192  0.58323769  0.70102302     2.17500
O200        O  0.72343287  0.52305744  0.69108039    -0.52100
O201        O  0.80836805  0.52305448  0.70256554    -0.75300
O202        O  0.81015173  0.60509776  0.68731903    -0.82100
O203        O  0.66651546  0.53023152  0.71538845    -0.83800
O204        O  0.87873323  0.68369336  0.68735446    -0.79500
O205        O  0.69226766  0.51684981  0.70350002    -0.91100
O206        O  0.86405130  0.54644812  0.71271631    -0.77100
O207        O  0.86487335  0.62737518  0.70462858    -0.86600
O208        O  0.78035210  0.57273167  0.71500798    -0.86200
O209        O  0.80502325  0.66907959  0.69743999    -0.73000
O210        O  0.73018251  0.61761923  0.70697585    -0.85100
Zr211      Zr  0.85144990  0.73877148  0.72097116     2.26400
Zr212      Zr  0.89248190  0.71278932  0.70100817     2.06300
Zr213      Zr  0.73408810  0.60803455  0.72099895     2.10000
Zr214      Zr  0.86667743  0.61865871  0.71868784     1.78800
O215        O  0.65043204  0.59558058  0.72347109    -0.93900
O216        O  0.95424514  0.63992211  0.71739351    -0.41700
O217        O  0.82049039  0.65306652  0.72493235    -0.78400
O218        O  0.89841796  0.70413570  0.71499685    -0.97100
O219        O  0.84758145  0.74880246  0.70708130    -0.90400
O220        O  0.76441236  0.69390569  0.71747005    -0.93200
C221        C  0.83880961  0.51701516  0.70706094     1.00500
C222        C  0.65958060  0.50447393  0.70903887     1.13500
C223        C  0.84530230  0.64411189  0.68375860     1.04300
O224        O  0.96522414  0.70244745  0.69885014    -0.95400
O225        O  0.95894210  0.79134329  0.70631026    -0.91100
O226        O  0.93677504  0.80760346  0.71833262    -0.84300
C227        C  0.96800273  0.81820005  0.71257361     1.10900
O228        O  0.70054682  0.67131255  0.69288129    -0.97300
Zr229      Zr  0.76099170  0.70457507  0.70372198     1.88900
O230        O  0.84013640  0.81039189  0.71865075    -0.74000
O231        O  0.92550400  0.78456639  0.69200916    -0.53300
O232        O  0.79097939  0.75969123  0.69218051    -0.97900
O233        O  0.68024205  0.69628468  0.70736202    -0.55100
O234        O  0.78606780  0.78878148  0.70833895    -0.74500
C235        C  0.81448735  0.81983598  0.71364777     0.97800
O236        O  0.90041936  0.76301770  0.73316687    -0.63300
O237        O  0.72597280  0.54900729  0.73133413    -0.58100
O238        O  0.80002858  0.73331188  0.73229472    -0.94800
O239        O  0.73331874  0.65327138  0.73296944    -0.93200
O240        O  0.83258529  0.55367643  0.72886872    -0.93600
O241        O  0.91588098  0.65017853  0.73078728    -0.92400
C242        C  0.75964930  0.69871528  0.73558746     1.16700
H243        H  0.76565879  0.53748968  0.71636195     0.32600
H244        H  0.93305206  0.72215578  0.71670478     0.43500
H245        H  0.74555895  0.70717048  0.72008260     0.37000
H246        H  0.79887058  0.67294655  0.69197265     0.33500
H247        H  0.95520545  0.61032599  0.71951581     0.25300
H248        H  0.94683591  0.77925413  0.68818052     0.31200
H249        H  0.77385349  0.77974255  0.69244584     0.37100
H250        H  0.85863012  0.54399438  0.72960875     0.31600
H251        H  0.70143186  0.54919077  0.73512032     0.30500
H252        H  0.63659862  0.57043381  0.72779879     0.32100
H253        H  0.68719306  0.71818190  0.71203888     0.31100
H254        H  0.89369346  0.65485932  0.73452177     0.35100
H255        H  0.87876037  0.73816695  0.73720525     0.27800
H256        H  0.74413591  0.51140737  0.68829563     0.32100
H257        H  0.69030797  0.69673855  0.69188876     0.34900
H258        H  0.70771345  0.51543345  0.72880935     0.27500
H259        H  0.92687263  0.75421104  0.73217503     0.40400
H260        H  0.95211995  0.67077847  0.69580483     0.30500
H261        H  0.95956388  0.63912795  0.71162923     0.38100
H262        H  0.66022622  0.66157833  0.70945827     0.29900
H263        H  0.89605264  0.77973580  0.68890651     0.30000
H264        H  0.71663228  0.54268541  0.68711342     0.30300
Zr265      Zr  0.39655671  0.20433685  0.61254152     2.17500
O266        O  0.42572170  0.18185297  0.60064855    -0.52100
O267        O  0.46871287  0.28708743  0.61434559    -0.75300
O268        O  0.38888028  0.24731255  0.60094863    -0.82100
O269        O  0.44243105  0.14142391  0.62669283    -0.83800
O270        O  0.31240352  0.24220438  0.60107531    -0.79500
O271        O  0.46244174  0.18337676  0.61500441    -0.91100
O272        O  0.45018245  0.32328140  0.62451740    -0.77100
O273        O  0.35419038  0.24907431  0.61590602    -0.86600
O274        O  0.40844645  0.21966814  0.62641074    -0.86200
O275        O  0.31015073  0.15127103  0.60884917    -0.73000
O276        O  0.36103895  0.12374244  0.61881397    -0.85100
Zr277      Zr  0.24166870  0.12686558  0.63276207     2.26400
Zr278      Zr  0.26711961  0.19495429  0.61285457     2.06300
Zr279      Zr  0.37040775  0.13945093  0.63276484     2.10000
Zr280      Zr  0.36644050  0.26460893  0.62962405     1.78800
O281        O  0.35654502  0.05787888  0.63719843    -0.93900
O282        O  0.35984015  0.33684274  0.62526631    -0.41700
O283        O  0.32798464  0.18398214  0.63582821    -0.78400
O284        O  0.27802039  0.21019088  0.62682768    -0.97100
O285        O  0.23033221  0.11333462  0.61886849    -0.90400
O286        O  0.28448538  0.08281904  0.62936820    -0.93200
C287        C  0.47996498  0.32339308  0.61915114     1.00500
C288        C  0.47049329  0.15960698  0.62056384     1.13500
C289        C  0.35610269  0.25715376  0.59802404     1.04300
O290        O  0.25624521  0.26695458  0.61026519    -0.95400
O291        O  0.18851128  0.18493108  0.61818507    -0.91100
O292        O  0.17597223  0.14626932  0.63011406    -0.84300
C293        C  0.16319265  0.16602658  0.62458036     1.10900
O294        O  0.30119166  0.04705938  0.60326652    -0.97300
Zr295      Zr  0.27494096  0.07130496  0.61530692     1.88900
O296        O  0.18016657  0.03547942  0.63171372    -0.74000
O297        O  0.20787728  0.14532229  0.60248989    -0.53300
O298        O  0.21080819  0.04320653  0.60501753    -0.97900
O299        O  0.29508073  0.00490623  0.61767159    -0.55100
O300        O  0.19965620  0.00495343  0.62092998    -0.74500
C301        C  0.17168843  0.99967476  0.62685082     0.97800
O302        O  0.18580906  0.10968524  0.64408601    -0.63300
O303        O  0.44300002  0.17866475  0.64160143    -0.58100
O304        O  0.27178930  0.13783793  0.64644558    -0.94800
O305        O  0.34749913  0.14169197  0.64649919    -0.93200
O306        O  0.42042960  0.28945120  0.64125338    -0.93600
O307        O  0.33976010  0.29952855  0.64027193    -0.92400
C308        C  0.31100965  0.14289139  0.65003351     1.16700
H309        H  0.44362733  0.23817985  0.62781467     0.32600
H310        H  0.26074809  0.22739848  0.62859246     0.43500
H311        H  0.27163282  0.05154860  0.63223466     0.37000
H312        H  0.30762970  0.14642210  0.60319198     0.33500
H313        H  0.38672759  0.36582560  0.62818318     0.25300
H314        H  0.19063715  0.16432172  0.60114194     0.31200
H315        H  0.18996249  0.00624894  0.60568107     0.37100
H316        H  0.41525101  0.25741712  0.64351681     0.31600
H317        H  0.45169424  0.15218642  0.64266858     0.30500
H318        H  0.37825966  0.05074648  0.63373741     0.32100
H319        H  0.26383530  0.97312019  0.61639529     0.31100
H320        H  0.30258550  0.28186624  0.63990694     0.35100
H321        H  0.18413110  0.14072939  0.64494147     0.27800
H322        H  0.45018095  0.21424858  0.59815191     0.32100
H323        H  0.27580771  0.01122303  0.60236866     0.34900
H324        H  0.47138827  0.20417815  0.63839960     0.27500
H325        H  0.15173237  0.08454910  0.64223768     0.40400
H326        H  0.27825755  0.29254792  0.61417549     0.30500
H327        H  0.37170503  0.34262353  0.61971025     0.38100
H328        H  0.29833080  0.00386318  0.62348318     0.29900
H329        H  0.22906638  0.14950407  0.59781181     0.30000
H330        H  0.39642308  0.16686840  0.59703090     0.30300
Zr331      Zr  0.40362398  0.19265883  0.70104371     2.17500
O332        O  0.47213076  0.21535855  0.69162778    -0.52100
O333        O  0.46039592  0.28391595  0.70276644    -0.75300
O334        O  0.37937240  0.19388851  0.68720760    -0.82100
O335        O  0.46541567  0.14862363  0.71604842    -0.83800
O336        O  0.30064901  0.18328979  0.68700842    -0.79500
O337        O  0.47051989  0.17363250  0.70326621    -0.91100
O338        O  0.43787314  0.31272953  0.71340741    -0.77100
O339        O  0.35347103  0.22973000  0.70401755    -0.86600
O340        O  0.41210212  0.20807799  0.71493658    -0.86200
O341        O  0.31944296  0.12777200  0.69753710    -0.73000
O342        O  0.37507773  0.11192558  0.70737003    -0.85100
Zr343      Zr  0.24873930  0.10423457  0.72094289     2.26400
Zr344      Zr  0.26957149  0.16583971  0.70054721     2.06300
Zr345      Zr  0.38313739  0.12840837  0.72128720     2.10000
Zr346      Zr  0.36050573  0.24336726  0.71801925     1.78800
O347        O  0.40643249  0.06453484  0.72373604    -0.93900
O348        O  0.33660902  0.30464839  0.71386438    -0.41700
O349        O  0.33279838  0.16512109  0.72481218    -0.78400
O350        O  0.27663498  0.18344830  0.71446063    -0.97100
O351        O  0.24002161  0.08725435  0.70712494    -0.90400
O352        O  0.29875350  0.06687994  0.71787204    -0.93200
C353        C  0.46740897  0.31897114  0.70767435     1.00500
C354        C  0.48781337  0.16188318  0.70929915     1.13500
C355        C  0.34011727  0.18826287  0.68353935     1.04300
O356        O  0.26917663  0.24323173  0.69752930    -0.95400
O357        O  0.18741507  0.14637361  0.70553238    -0.91100
O358        O  0.17580246  0.11329155  0.71795521    -0.84300
C359        C  0.16181700  0.12903970  0.71194030     1.10900
O360        O  0.33566987  0.02579618  0.69512462    -0.97300
Zr361      Zr  0.28947454  0.04982757  0.70419965     1.88900
O362        O  0.18074000  0.02008845  0.71850368    -0.74000
O363        O  0.20188146  0.11720106  0.69119801    -0.53300
O364        O  0.24617618  0.02049467  0.69156503    -0.97900
O365        O  0.29298291  0.97697566  0.70918969    -0.55100
O366        O  0.20157258  0.99156578  0.70754492    -0.74500
C367        C  0.17050674  0.98794279  0.71296537     0.97800
O368        O  0.21742570  0.12475044  0.73281600    -0.63300
O369        O  0.43536057  0.18112300  0.73209567    -0.58100
O370        O  0.25840154  0.06370169  0.73271082    -0.94800
O371        O  0.33879881  0.07801602  0.73295098    -0.93200
O372        O  0.41728800  0.28156604  0.72918382    -0.93600
O373        O  0.32004320  0.26339548  0.72870146    -0.92400
C374        C  0.29398141  0.05874963  0.73581893     1.16700
H375        H  0.44678963  0.23084515  0.71633931     0.32600
H376        H  0.25611654  0.19774351  0.71596036     0.43500
H377        H  0.28730885  0.03546711  0.72063831     0.37000
H378        H  0.31593972  0.11631557  0.69215751     0.33500
H379        H  0.35569401  0.33402377  0.71737325     0.25300
H380        H  0.20158115  0.14232187  0.68754881     0.31200
H381        H  0.22799685  0.98328815  0.69195406     0.37100
H382        H  0.42327744  0.31639163  0.72946054     0.31600
H383        H  0.44488946  0.15936780  0.73508022     0.30500
H384        H  0.42830422  0.07648213  0.72847355     0.32100
H385        H  0.26466268  0.96017157  0.71297336     0.31100
H386        H  0.31597502  0.23986896  0.73303024     0.35100
H387        H  0.24498516  0.13610835  0.73673254     0.27800
H388        H  0.47595095  0.24500359  0.68868746     0.32100
H389        H  0.31309829  0.98957612  0.69399333     0.34900
H390        H  0.46702830  0.20661374  0.72954136     0.27500
H391        H  0.21697906  0.15591355  0.73144574     0.40400
H392        H  0.25659618  0.25094906  0.70242035     0.30500
H393        H  0.35229825  0.31638739  0.70859376     0.38100
H394        H  0.32363773  0.99129969  0.71251449     0.29900
H395        H  0.21383658  0.09841483  0.68794934     0.30000
H396        H  0.45966292  0.18788748  0.68768774     0.30300
Zr397      Zr  0.23205421  0.40278943  0.88594888     2.17500
O398        O  0.21039082  0.43827891  0.89715207    -0.52100
O399        O  0.31676160  0.47238239  0.88432909    -0.75300
O400        O  0.27231471  0.39685809  0.89806673    -0.82100
O401        O  0.16611668  0.44569922  0.87141868    -0.83800
O402        O  0.27116144  0.32239713  0.89809322    -0.79500
O403        O  0.20955510  0.46653985  0.88302386    -0.91100
O404        O  0.35274140  0.45222687  0.87436430    -0.77100
O405        O  0.27704083  0.36035276  0.88298744    -0.86600
O406        O  0.24748266  0.41280044  0.87203623    -0.86200
O407        O  0.17756983  0.31742987  0.89001779    -0.73000
O408        O  0.15162785  0.36643818  0.87960446    -0.85100
Zr409      Zr  0.15635162  0.24610750  0.86621163     2.26400
Zr410      Zr  0.22203184  0.27450890  0.88655973     2.06300
Zr411      Zr  0.16683556  0.37404643  0.86568480     2.10000
Zr412      Zr  0.29214248  0.36966416  0.86920482     1.78800
O413        O  0.08291246  0.35626668  0.86186846    -0.93900
O414        O  0.35984296  0.35542845  0.87347468    -0.41700
O415        O  0.21222237  0.33195312  0.86289813    -0.78400
O416        O  0.23819234  0.28221225  0.87253526    -0.97100
O417        O  0.14186002  0.23731149  0.88014469    -0.90400
O418        O  0.11072040  0.28808411  0.86919567    -0.93200
C419        C  0.35396778  0.48216523  0.87977313     1.00500
C420        C  0.18469596  0.47353911  0.87754112     1.13500
C421        C  0.28415657  0.36578700  0.90111737     1.04300
O422        O  0.29115906  0.25854045  0.88881039    -0.95400
O423        O  0.20277154  0.19123868  0.88230974    -0.91100
O424        O  0.17323551  0.17963756  0.86977475    -0.84300
C425        C  0.18634197  0.16506455  0.87596982     1.10900
O426        O  0.07207870  0.31795380  0.89363203    -0.97300
Zr427      Zr  0.09833500  0.28083303  0.88325689     1.88900
O428        O  0.06611135  0.18283785  0.86730491    -0.74000
O429        O  0.17445662  0.22193486  0.89774343    -0.53300
O430        O  0.07064714  0.22657586  0.89490487    -0.97900
O431        O  0.02494321  0.28680225  0.87938067    -0.55100
O432        O  0.03917482  0.19780014  0.87893667    -0.74500
C433        C  0.03342906  0.17057319  0.87289259     0.97800
O434        O  0.14393495  0.18870440  0.85535795    -0.63300
O435        O  0.20160601  0.44392606  0.85629872    -0.58100
O436        O  0.16844817  0.27598081  0.85231013    -0.94800
O437        O  0.16889571  0.35009693  0.85204820    -0.93200
O438        O  0.31997584  0.42236074  0.85740127    -0.93600
O439        O  0.32361170  0.34101075  0.85833356    -0.92400
C440        C  0.17173413  0.31434160  0.84858580     1.16700
H441        H  0.26659772  0.44787724  0.87053910     0.32600
H442        H  0.25526002  0.26419961  0.87102998     0.43500
H443        H  0.07953583  0.27396044  0.86627789     0.37000
H444        H  0.17216470  0.31626723  0.89565579     0.33500
H445        H  0.38952200  0.37929089  0.87032180     0.25300
H446        H  0.19805348  0.21340021  0.90037237     0.31200
H447        H  0.03355259  0.20608563  0.89442825     0.37100
H448        H  0.28854517  0.41720346  0.85490504     0.31600
H449        H  0.17409046  0.45120530  0.85530197     0.30500
H450        H  0.08515631  0.38959096  0.86170288     0.32100
H451        H  0.01108603  0.26517361  0.87464832     0.31100
H452        H  0.29465282  0.30799736  0.85681280     0.35100
H453        H  0.17610113  0.18880145  0.85477269     0.27800
H454        H  0.24289060  0.46303973  0.89956715     0.32100
H455        H  0.03697684  0.29223474  0.89495358     0.34900
H456        H  0.22724107  0.47346902  0.85927532     0.27500
H457        H  0.11937909  0.15447707  0.85726719     0.40400
H458        H  0.31463686  0.27550269  0.88435770     0.30500
H459        H  0.36780919  0.36885700  0.87893038     0.38100
H460        H  0.03904110  0.32158357  0.87734784     0.29900
H461        H  0.17127627  0.24489990  0.90150015     0.30000
H462        H  0.19437408  0.41056001  0.90105827     0.30300
Zr463      Zr  0.20197751  0.40923768  0.79802213     2.17500
O464        O  0.20823647  0.46902095  0.80809399    -0.52100
O465        O  0.29237398  0.46902196  0.79650048    -0.75300
O466        O  0.21184838  0.38400300  0.81155484    -0.82100
O467        O  0.15412635  0.47004738  0.78322037    -0.83800
O468        O  0.20883991  0.30874168  0.81078874    -0.79500
O469        O  0.18128416  0.47518339  0.79590523    -0.91100
O470        O  0.32236368  0.44827369  0.78578332    -0.77100
O471        O  0.24343840  0.36487185  0.79402837    -0.86600
O472        O  0.21439091  0.42072922  0.78402242    -0.86200
O473        O  0.14266559  0.32335738  0.80145893    -0.73000
O474        O  0.12012237  0.37737861  0.79202516    -0.85100
Zr475      Zr  0.11673724  0.25523140  0.77776113     2.26400
Zr476      Zr  0.18486691  0.27913160  0.79738631     2.06300
Zr477      Zr  0.13319880  0.38740290  0.77798552     2.10000
Zr478      Zr  0.25362439  0.37455394  0.77999308     1.78800
O479        O  0.06389971  0.40408536  0.77669372    -0.93900
O480        O  0.31539257  0.34765547  0.78191313    -0.41700
O481        O  0.17281274  0.34096550  0.77385275    -0.78400
O482        O  0.19900909  0.28880478  0.78339195    -0.97100
O483        O  0.10322072  0.24484907  0.79164391    -0.90400
O484        O  0.07649196  0.30153117  0.78147847    -0.93200
C485        C  0.32805842  0.47649465  0.79169299     1.00500
C486        C  0.16835744  0.49224440  0.78996678     1.13500
C487        C  0.21221668  0.34591176  0.81474918     1.04300
O488        O  0.26349409  0.28048012  0.80005910    -0.95400
O489        O  0.17536490  0.20261237  0.79183413    -0.91100
O490        O  0.13160851  0.18512916  0.78028441    -0.84300
C491        C  0.15543589  0.17568758  0.78566346     1.10900
O492        O  0.03685679  0.32886430  0.80553647    -0.97300
Zr493      Zr  0.06293324  0.29091020  0.79525863     1.88900
O494        O  0.03286452  0.18577837  0.78034212    -0.74000
O495        O  0.13654816  0.20776189  0.80616199    -0.53300
O496        O  0.03662490  0.24109426  0.80738567    -0.97900
O497        O  0.99207309  0.30073228  0.79118287    -0.55100
O498        O  0.00236886  0.20622279  0.79106664    -0.74500
C499        C  0.99877890  0.17588645  0.78556118     0.97800
O500        O  0.13369067  0.22348557  0.76558138    -0.63300
O501        O  0.18130757  0.44159642  0.76697128    -0.58100
O502        O  0.07368030  0.26391695  0.76634263    -0.94800
O503        O  0.08292379  0.34207435  0.76628309    -0.93200
O504        O  0.28480037  0.43873639  0.76968318    -0.93600
O505        O  0.27559529  0.34845111  0.76772896    -0.92400
C506        C  0.06554621  0.29767226  0.76331701     1.16700
H507        H  0.23541751  0.45596282  0.78272790     0.32600
H508        H  0.21514706  0.27066000  0.78150525     0.43500
H509        H  0.04432613  0.28870858  0.77889214     0.37000
H510        H  0.13366716  0.31841291  0.80698123     0.33500
H511        H  0.34499663  0.37131701  0.77873326     0.25300
H512        H  0.16207589  0.20523203  0.80940106     0.31200
H513        H  0.99965818  0.21933972  0.80690307     0.37100
H514        H  0.32175621  0.45295744  0.76964750     0.31600
H515        H  0.15604052  0.44391426  0.76363594     0.30500
H516        H  0.07383575  0.42836345  0.77225932     0.32100
H517        H  0.97532189  0.27624174  0.78685114     0.31100
H518        H  0.24286269  0.32363955  0.76538619     0.35100
H519        H  0.14547530  0.25153636  0.76173587     0.27800
H520        H  0.24229425  0.48287280  0.81039050     0.32100
H521        H  0.00104315  0.30426076  0.80664326     0.34900
H522        H  0.20141784  0.47559285  0.76930325     0.27500
H523        H  0.16423178  0.22131807  0.76668520     0.40400
H524        H  0.28835964  0.31623617  0.80112494     0.30500
H525        H  0.32649795  0.35634517  0.78747211     0.38100
H526        H  0.00770486  0.33406912  0.78856231     0.29900
H527        H  0.11952298  0.21928576  0.80988862     0.30000
H528        H  0.18458965  0.44889057  0.81237372     0.30300
Zr529      Zr  0.59804113  0.80574042  0.88679398     2.17500
O530        O  0.55734827  0.75414922  0.89845285    -0.52100
O531        O  0.53051594  0.82333623  0.88460298    -0.75300
O532        O  0.61061294  0.85622740  0.89868770    -0.82100
O533        O  0.54713386  0.69487735  0.87283357    -0.83800
O534        O  0.68772354  0.92707583  0.89820253    -0.79500
O535        O  0.53364538  0.71770397  0.88496045    -0.91100
O536        O  0.55140177  0.87701477  0.87424016    -0.77100
O537        O  0.64508506  0.89259502  0.88333838    -0.86600
O538        O  0.58704662  0.80880479  0.87283792    -0.86200
O539        O  0.68337894  0.83345559  0.89057960    -0.73000
O540        O  0.62940826  0.75653725  0.88067589    -0.85100
Zr541      Zr  0.75356429  0.87475057  0.86674495     2.26400
Zr542      Zr  0.73094784  0.92025067  0.88654276     2.06300
Zr543      Zr  0.62152440  0.76240519  0.86668552     2.10000
Zr544      Zr  0.63432182  0.89609397  0.86955423     1.78800
O545        O  0.63592612  0.69395289  0.86292497    -0.93900
O546        O  0.64614672  0.97707584  0.87385795    -0.41700
O547        O  0.66827823  0.84936310  0.86358308    -0.78400
O548        O  0.72167642  0.92561173  0.87257432    -0.97100
O549        O  0.76277993  0.87088993  0.88066520    -0.90400
O550        O  0.70674134  0.78766717  0.87012489    -0.93200
C551        C  0.52112647  0.84970052  0.87974631     1.00500
C552        C  0.52274567  0.68556108  0.87935995     1.13500
C553        C  0.64469760  0.89882189  0.90148281     1.04300
O554        O  0.74749014  0.00640633  0.88749692    -0.95400
O555        O  0.81502970  0.98039265  0.88166628    -0.91100
O556        O  0.82226480  0.95954896  0.86906202    -0.84300
C557        C  0.83931644  0.98830891  0.87512286     1.10900
O558        O  0.68004718  0.73027626  0.89584574    -0.97300
Zr559      Zr  0.71432612  0.78433726  0.88422646     1.88900
O560        O  0.81192151  0.84197916  0.86839140    -0.74000
O561        O  0.78638400  0.93023238  0.89754871    -0.53300
O562        O  0.77501228  0.81406906  0.89503854    -0.97900
O563        O  0.68940670  0.69693408  0.88140633    -0.55100
O564        O  0.79046051  0.79117118  0.87915487    -0.74500
C565        C  0.81941057  0.81433206  0.87332888     0.97800
O566        O  0.82008556  0.91449054  0.85683936    -0.63300
O567        O  0.55162944  0.72415478  0.85734519    -0.58100
O568        O  0.72211930  0.85629634  0.85297784    -0.94800
O569        O  0.64251683  0.78961674  0.85295830    -0.93200
O570        O  0.58409822  0.87359299  0.85751083    -0.93600
O571        O  0.67112900  0.95831570  0.85900532    -0.92400
C572        C  0.68104046  0.82506706  0.84939574     1.16700
H573        H  0.55204571  0.79387157  0.87137291     0.32600
H574        H  0.74096236  0.96015357  0.87081514     0.43500
H575        H  0.71885558  0.76849871  0.86730046     0.37000
H576        H  0.68522816  0.83075635  0.89624781     0.33500
H577        H  0.62546452  0.98434197  0.87018359     0.25300
H578        H  0.78966690  0.95945350  0.90054224     0.31200
H579        H  0.79128260  0.79321422  0.89480067     0.37100
H580        H  0.56582532  0.89252415  0.85780276     0.31600
H581        H  0.54013367  0.68769700  0.85739622     0.30500
H582        H  0.60808042  0.66359890  0.86544420     0.32100
H583        H  0.71467739  0.69123505  0.88412205     0.31100
H584        H  0.69099736  0.94725735  0.85583730     0.35100
H585        H  0.81994444  0.88642981  0.85393467     0.27800
H586        H  0.53365898  0.76490886  0.90035381     0.32100
H587        H  0.70383639  0.71834269  0.89710979     0.34900
H588        H  0.52392655  0.72692332  0.85984749     0.27500
H589        H  0.80888220  0.93109003  0.85296953     0.40400
H590        H  0.73529192  0.01255495  0.88243121     0.30500
H591        H  0.62830430  0.97015457  0.87899208     0.38100
H592        H  0.69636954  0.69613644  0.87570835     0.29900
H593        H  0.76626591  0.90094517  0.90103990     0.30000
H594        H  0.58378878  0.76560421  0.90256656     0.30300
Zr595      Zr  0.59482043  0.78502116  0.79928923     2.17500
O596        O  0.53811312  0.73007365  0.80960338    -0.52100
O597        O  0.53385668  0.81424479  0.79754664    -0.75300
O598        O  0.61684919  0.81939526  0.81283052    -0.82100
O599        O  0.54287500  0.67143575  0.78552934    -0.83800
O600        O  0.69455315  0.88905910  0.81235797    -0.79500
O601        O  0.52836316  0.69884389  0.79715839    -0.91100
O602        O  0.55453421  0.86468302  0.78673004    -0.77100
O603        O  0.63600607  0.87036771  0.79498091    -0.86600
O604        O  0.58368904  0.78276927  0.78527396    -0.86200
O605        O  0.68141965  0.81485871  0.80271010    -0.73000
O606        O  0.63106844  0.73735770  0.79381586    -0.85100
Zr607      Zr  0.74917685  0.85669936  0.77891373     2.26400
Zr608      Zr  0.72186022  0.90122023  0.79858172     2.06300
Zr609      Zr  0.62078661  0.73700518  0.77978425     2.10000
Zr610      Zr  0.62685896  0.86776113  0.78087830     1.78800
O611        O  0.61121104  0.65358311  0.77857758    -0.93900
O612        O  0.64871638  0.95571359  0.78156402    -0.41700
O613        O  0.66287690  0.82197343  0.77506143    -0.78400
O614        O  0.71274482  0.90314799  0.78448782    -0.97100
O615        O  0.75982932  0.85687571  0.79288674    -0.90400
O616        O  0.70752893  0.77082404  0.78304647    -0.93200
C617        C  0.52643999  0.84219432  0.79265908     1.00500
C618        C  0.51651554  0.66542722  0.79177265     1.13500
C619        C  0.65606930  0.85546388  0.81617472     1.04300
O620        O  0.70578017  0.97063434  0.80047098    -0.95400
O621        O  0.79858096  0.96835623  0.79298408    -0.91100
O622        O  0.81706614  0.94223812  0.78151003    -0.84300
C623        C  0.82626241  0.97535635  0.78688710     1.10900
O624        O  0.68617477  0.71104664  0.80775845    -0.97300
Zr625      Zr  0.71860197  0.77119305  0.79684756     1.88900
O626        O  0.82075021  0.84551461  0.78116589    -0.74000
O627        O  0.79458436  0.94070985  0.80735005    -0.53300
O628        O  0.77189095  0.80202929  0.80856559    -0.97900
O629        O  0.71216113  0.69102269  0.79339034    -0.55100
O630        O  0.80361133  0.79883598  0.79238112    -0.74500
C631        C  0.83260596  0.82450425  0.78664833     0.97800
O632        O  0.78011324  0.90860594  0.76699724    -0.63300
O633        O  0.56055848  0.72251721  0.76930183    -0.58100
O634        O  0.74019551  0.80567559  0.76723199    -0.94800
O635        O  0.66521215  0.73224523  0.76811880    -0.93200
O636        O  0.55941443  0.82872364  0.77116233    -0.93600
O637        O  0.65346689  0.91169284  0.76823412    -0.92400
C638        C  0.70741445  0.76167506  0.76469088     1.16700
H639        H  0.54833694  0.76672040  0.78394695     0.32600
H640        H  0.72980190  0.93731400  0.78253510     0.43500
H641        H  0.72172288  0.75248820  0.78053666     0.37000
H642        H  0.68610194  0.81006249  0.80820245     0.33500
H643        H  0.62151416  0.95723919  0.77865650     0.25300
H644        H  0.78739562  0.96090046  0.81114037     0.31200
H645        H  0.79581814  0.78941823  0.80806047     0.37100
H646        H  0.54438231  0.85070627  0.77095782     0.31600
H647        H  0.58067054  0.73297443  0.76436551     0.30500
H648        H  0.58814064  0.63792428  0.77404024     0.32100
H649        H  0.74211514  0.69983678  0.79008619     0.31100
H650        H  0.67027811  0.89579012  0.76543841     0.35100
H651        H  0.75384105  0.89070212  0.76293581     0.27800
H652        H  0.52539932  0.74984466  0.81239688     0.32100
H653        H  0.71231626  0.70190838  0.80883931     0.34900
H654        H  0.53978652  0.68541564  0.76890316     0.27500
H655        H  0.77777296  0.93900177  0.76814953     0.40400
H656        H  0.67659473  0.95731631  0.80411428     0.30500
H657        H  0.64341738  0.96109898  0.78717363     0.38100
H658        H  0.68340525  0.67491764  0.78968699     0.29900
H659        H  0.79274384  0.91270376  0.81052850     0.30000
H660        H  0.55940782  0.72518673  0.81349734     0.30300
Zr661      Zr  0.19547464  0.76263724  0.88625719     2.17500
O662        O  0.24621203  0.76935502  0.89779796    -0.52100
O663        O  0.18122157  0.67938248  0.88326163    -0.75300
O664        O  0.14426808  0.71900146  0.89779142    -0.82100
O665        O  0.30907562  0.83192754  0.87278345    -0.83800
O666        O  0.07270239  0.72344085  0.89781793    -0.79500
O667        O  0.28505442  0.79180466  0.88462402    -0.91100
O668        O  0.12479254  0.64588919  0.87324349    -0.77100
O669        O  0.10885862  0.72065941  0.88260968    -0.86600
O670        O  0.19451718  0.75261597  0.87225411    -0.86200
O671        O  0.16376608  0.81608424  0.89062138    -0.73000
O672        O  0.24291209  0.84572531  0.88086331    -0.85100
Zr673      Zr  0.12317809  0.84854576  0.86691131     2.26400
Zr674      Zr  0.07741064  0.77495606  0.88638355     2.06300
Zr675      Zr  0.23981224  0.83601601  0.86686375     2.10000
Zr676      Zr  0.10739897  0.71066318  0.86872392     1.78800
O677        O  0.30625546  0.92175081  0.86396986    -0.93900
O678        O  0.02472500  0.63963055  0.87188933    -0.41700
O679        O  0.15333271  0.79320150  0.86344687    -0.78400
O680        O  0.07397296  0.76422166  0.87227433    -0.97100
O681        O  0.12420977  0.85782354  0.88091421    -0.90400
O682        O  0.20988575  0.89157376  0.87061646    -0.93200
C683        C  0.15386952  0.64364008  0.87846519     1.00500
C684        C  0.31797554  0.81556286  0.87919382     1.13500
C685        C  0.10152666  0.70838025  0.90079105     1.04300
O686        O  0.99249733  0.70368831  0.88784870    -0.95400
O687        O  0.01280096  0.79266822  0.88152307    -0.91100
O688        O  0.03878648  0.83203730  0.86963546    -0.84300
C689        C  0.00686908  0.81327717  0.87528768     1.10900
O690        O  0.27146261  0.91670959  0.89527599    -0.97300
Zr691      Zr  0.21020242  0.89816095  0.88475635     1.88900
O692        O  0.14963930  0.93753753  0.86881149    -0.74000
O693        O  0.06759815  0.82120798  0.89727498    -0.53300
O694        O  0.17798985  0.91995538  0.89636525    -0.97900
O695        O  0.29111153  0.97445267  0.88254816    -0.55100
O696        O  0.19257035  0.96171403  0.88035610    -0.74500
C697        C  0.17155328  0.96938232  0.87442106     0.97800
O698        O  0.08535385  0.86574978  0.85548740    -0.63300
O699        O  0.28245331  0.81051330  0.85731508    -0.58100
O700        O  0.14607930  0.84304232  0.85314834    -0.94800
O701        O  0.21489290  0.83382706  0.85323083    -0.93200
O702        O  0.13597158  0.68775120  0.85681433    -0.93600
O703        O  0.05002696  0.68870457  0.85755724    -0.92400
C704        C  0.17964774  0.83655738  0.84961428     1.16700
H705        H  0.21064425  0.73397503  0.87062614     0.32600
H706        H  0.03959534  0.74831565  0.87043088     0.43500
H707        H  0.22818927  0.92393441  0.86802749     0.37000
H708        H  0.16582159  0.81901636  0.89630609     0.33500
H709        H  0.02094546  0.61222028  0.86835836     0.25300
H710        H  0.03356329  0.79805777  0.89939829     0.31200
H711        H  0.19578028  0.95723386  0.89639852     0.37100
H712        H  0.11761062  0.65046004  0.85681575     0.31600
H713        H  0.31810272  0.83782357  0.85734023     0.30500
H714        H  0.32931821  0.93127207  0.86855458     0.32100
H715        H  0.29078199  0.99992002  0.88610530     0.31100
H716        H  0.05913787  0.72140931  0.85506040     0.35100
H717        H  0.05243080  0.83489401  0.85465188     0.27800
H718        H  0.23508820  0.73425854  0.89940968     0.32100
H719        H  0.27044507  0.94254019  0.89864849     0.34900
H720        H  0.28267492  0.78112706  0.85970139     0.27500
H721        H  0.07701166  0.89150677  0.85725466     0.40400
H722        H  0.99278350  0.67614357  0.88485249     0.30500
H723        H  0.02845183  0.62878480  0.87724288     0.38100
H724        H  0.28912108  0.98606393  0.87716448     0.29900
H725        H  0.09084070  0.82231409  0.90143246     0.30000
H726        H  0.23468796  0.78315832  0.90208733     0.30300
Zr727      Zr  0.22517755  0.80805549  0.79896645     2.17500
O728        O  0.28518559  0.81336147  0.80895221    -0.52100
O729        O  0.20175906  0.71895927  0.79755006    -0.75300
O730        O  0.19273681  0.79317946  0.81243477    -0.82100
O731        O  0.33356806  0.86360220  0.78433230    -0.83800
O732        O  0.12194001  0.79887401  0.81281105    -0.79500
O733        O  0.30911804  0.82568643  0.79634919    -0.91100
O734        O  0.15719231  0.68964388  0.78616601    -0.77100
O735        O  0.13818180  0.76289020  0.79586727    -0.86600
O736        O  0.22200722  0.79448247  0.78507017    -0.86200
O737        O  0.19666896  0.86549516  0.80265455    -0.73000
O738        O  0.27083004  0.89069208  0.79294455    -0.85100
Zr739      Zr  0.14549874  0.88274412  0.77919122     2.26400
Zr740      Zr  0.10886164  0.81945407  0.79945541     2.06300
Zr741      Zr  0.26608179  0.87568752  0.77897860     2.10000
Zr742      Zr  0.13489215  0.75040166  0.78187675     1.78800
O743        O  0.35003731  0.94671984  0.77651081    -0.93900
O744        O  0.05529536  0.67888560  0.78619553    -0.41700
O745        O  0.17885366  0.83021245  0.77526450    -0.78400
O746        O  0.10105009  0.80224254  0.78553041    -0.97100
O747        O  0.15077486  0.89933166  0.79301012    -0.90400
O748        O  0.23298214  0.92915584  0.78240251    -0.93200
C749        C  0.18030504  0.68536486  0.79212574     1.00500
C750        C  0.34052518  0.84446656  0.79066260     1.13500
C751        C  0.15666416  0.79388986  0.81616463     1.04300
O752        O  0.03297794  0.74007365  0.80245636    -0.95400
O753        O  0.04084259  0.83040792  0.79441896    -0.91100
O754        O  0.06112431  0.86654599  0.78221400    -0.84300
C755        C  0.03121270  0.84791562  0.78816639     1.10900
O756        O  0.29827825  0.97438406  0.80694391    -0.97300
Zr757      Zr  0.23777050  0.94514670  0.79609031     1.88900
O758        O  0.15343048  0.96397387  0.78111429    -0.74000
O759        O  0.09190328  0.86775243  0.80917959    -0.53300
O760        O  0.21291994  0.97709697  0.80739393    -0.97900
O761        O  0.31806695  0.01543920  0.79166558    -0.55100
O762        O  0.20945644  0.00173226  0.79108328    -0.74500
C763        C  0.17848383  0.00065718  0.78584068     0.97800
O764        O  0.09199813  0.85694780  0.76747240    -0.63300
O765        O  0.27406567  0.82724535  0.76824078    -0.58100
O766        O  0.19368477  0.92655512  0.76748429    -0.94800
O767        O  0.26595216  0.92294613  0.76727777    -0.93200
O768        O  0.15761065  0.72107174  0.77004040    -0.93600
O769        O  0.07085889  0.72328003  0.77161556    -0.92400
C770        C  0.23634448  0.93749168  0.76443465     1.16700
H771        H  0.23798082  0.77532653  0.78364505     0.32600
H772        H  0.06608762  0.78476392  0.78398664     0.43500
H773        H  0.25017141  0.96114903  0.77969063     0.37000
H774        H  0.20237744  0.87432937  0.80817590     0.33500
H775        H  0.05196115  0.65003139  0.78308687     0.25300
H776        H  0.06860571  0.84273891  0.81306984     0.31200
H777        H  0.23125710  0.01415746  0.80672353     0.37100
H778        H  0.13704985  0.68387457  0.77029196     0.31600
H779        H  0.29482769  0.85265016  0.76420119     0.30500
H780        H  0.36443225  0.93469292  0.77238620     0.32100
H781        H  0.30923177  0.03706445  0.78849606     0.31100
H782        H  0.08470114  0.75125376  0.76773537     0.35100
H783        H  0.11000553  0.84806625  0.76350427     0.27800
H784        H  0.26814764  0.78150043  0.81200098     0.32100
H785        H  0.31319242  0.01142399  0.80711839     0.34900
H786        H  0.29629410  0.81523901  0.77035212     0.27500
H787        H  0.06234570  0.82417916  0.76891030     0.40400
H788        H  0.04529234  0.71846572  0.80472911     0.30500
H789        H  0.06142146  0.67187431  0.79167709     0.38100
H790        H  0.33105271  0.00070297  0.78776317     0.29900
H791        H  0.12390824  0.88758491  0.81209388     0.30000
H792        H  0.28936797  0.84000531  0.81269149     0.30300
Zr793      Zr  0.50107125  0.42168496  0.55393788     2.17500
O794        O  0.55252288  0.43757412  0.56575768    -0.52100
O795        O  0.48731784  0.33793428  0.55178726    -0.75300
O796        O  0.45029367  0.37996119  0.56556404    -0.82100
O797        O  0.61357732  0.48594559  0.54035956    -0.83800
O798        O  0.37890950  0.38508767  0.56539172    -0.79500
O799        O  0.58832449  0.44322962  0.55200845    -0.91100
O800        O  0.43866091  0.30752253  0.54080210    -0.77100
O801        O  0.41470432  0.37859175  0.55012816    -0.86600
O802        O  0.50113061  0.41069890  0.53994981    -0.86200
O803        O  0.46780590  0.47440220  0.55792400    -0.73000
O804        O  0.54833778  0.50435228  0.54834952    -0.85100
Zr805      Zr  0.42925911  0.50575253  0.53404662     2.26400
Zr806      Zr  0.38192577  0.43228940  0.55351230     2.06300
Zr807      Zr  0.54601882  0.49335632  0.53431845     2.10000
Zr808      Zr  0.41443547  0.36772482  0.53628713     1.78800
O809        O  0.61517140  0.57869801  0.53203963    -0.93900
O810        O  0.33578370  0.29341823  0.54019811    -0.41700
O811        O  0.45956417  0.45002889  0.53072894    -0.78400
O812        O  0.38006114  0.42124924  0.53943254    -0.97100
O813        O  0.42852874  0.51522410  0.54801741    -0.90400
O814        O  0.51547457  0.54859145  0.53793529    -0.93200
C815        C  0.46492002  0.30438983  0.54645282     1.00500
C816        C  0.62139701  0.46716735  0.54661317     1.13500
C817        C  0.40790136  0.37072744  0.56851850     1.04300
O818        O  0.29952947  0.35699224  0.55460051    -0.95400
O819        O  0.31733709  0.44911910  0.54843724    -0.91100
O820        O  0.34400568  0.48816958  0.53653548    -0.84300
C821        C  0.31146740  0.46902165  0.54211995     1.10900
O822        O  0.56195043  0.57145211  0.56425420    -0.97300
Zr823      Zr  0.51413805  0.55612462  0.55204661     1.88900
O824        O  0.45886127  0.59628392  0.53563913    -0.74000
O825        O  0.36536888  0.47540003  0.56417184    -0.53300
O826        O  0.47417011  0.58096438  0.56215379    -0.97900
O827        O  0.59975478  0.62682691  0.55077656    -0.55100
O828        O  0.50644166  0.62418108  0.54672177    -0.74500
C829        C  0.48495620  0.63077489  0.54074596     0.97800
O830        O  0.39415897  0.52509456  0.52250187    -0.63300
O831        O  0.58544737  0.46509104  0.52463072    -0.58100
O832        O  0.45291614  0.49907318  0.52039411    -0.94800
O833        O  0.52571316  0.49681698  0.52044135    -0.93200
O834        O  0.44126153  0.34862333  0.52384455    -0.93600
O835        O  0.35229566  0.33480824  0.52568740    -0.92400
C836        C  0.48841467  0.49599767  0.51683568     1.16700
H837        H  0.51786569  0.39240447  0.53845670     0.32600
H838        H  0.34582741  0.40512483  0.53753718     0.43500
H839        H  0.53445558  0.58073805  0.53531634     0.37000
H840        H  0.46912760  0.47774069  0.56361232     0.33500
H841        H  0.33378978  0.26582332  0.53689912     0.25300
H842        H  0.33270183  0.44954453  0.56641574     0.31200
H843        H  0.49432974  0.61819410  0.56234010     0.37100
H844        H  0.42307364  0.31138205  0.52356349     0.31600
H845        H  0.62186254  0.49013887  0.52484916     0.30500
H846        H  0.64137652  0.58307907  0.53588933     0.32100
H847        H  0.59863648  0.65590088  0.55308784     0.31100
H848        H  0.33015219  0.34912576  0.52663034     0.35100
H849        H  0.36130334  0.49440865  0.52148135     0.27800
H850        H  0.54352779  0.40392056  0.56785105     0.32100
H851        H  0.56876588  0.60479959  0.56615628     0.34900
H852        H  0.58244298  0.43385447  0.52686946     0.27500
H853        H  0.38547146  0.55046318  0.52429508     0.40400
H854        H  0.30359907  0.33004415  0.55213014     0.30500
H855        H  0.34201145  0.28535887  0.54560695     0.38100
H856        H  0.60449906  0.63419313  0.54503766     0.29900
H857        H  0.39035894  0.48074343  0.56831559     0.30000
H858        H  0.53919126  0.45183064  0.56969289     0.30300
Zr859      Zr  0.53499464  0.45724687  0.46530590     2.17500
O860        O  0.58043161  0.43524349  0.47489741    -0.52100
O861        O  0.50326206  0.36638519  0.46361858    -0.75300
O862        O  0.51081079  0.45697585  0.47922257    -0.82100
O863        O  0.63943358  0.50307949  0.44996694    -0.83800
O864        O  0.43803175  0.45914286  0.47957997    -0.79500
O865        O  0.62192597  0.48054879  0.46287989    -0.91100
O866        O  0.45169899  0.33606008  0.45300051    -0.77100
O867        O  0.44753277  0.41664553  0.46235046    -0.86600
O868        O  0.52824206  0.44174654  0.45138496    -0.86200
O869        O  0.51236701  0.51960715  0.46887251    -0.73000
O870        O  0.58442366  0.53829728  0.45890498    -0.85100
Zr871      Zr  0.46018518  0.53939783  0.44573778     2.26400
Zr872      Zr  0.42408552  0.47750843  0.46609092     2.06300
Zr873      Zr  0.57547302  0.52171922  0.44499553     2.10000
Zr874      Zr  0.44111754  0.40343487  0.44831130     1.78800
O875        O  0.66043556  0.59123897  0.44263078    -0.93900
O876        O  0.35639840  0.33787642  0.45190522    -0.41700
O877        O  0.48791733  0.48232466  0.44162096    -0.78400
O878        O  0.41285554  0.45941404  0.45217941    -0.97100
O879        O  0.46965490  0.55689564  0.45952885    -0.90400
O880        O  0.54824573  0.57981736  0.44849721    -0.93200
C881        C  0.47588229  0.33100320  0.45871892     1.00500
C882        C  0.65014295  0.49160700  0.45675173     1.13500
C883        C  0.47512534  0.45855449  0.48298297     1.04300
O884        O  0.34683936  0.40033499  0.46949822    -0.95400
O885        O  0.35687227  0.49023880  0.46139686    -0.91100
O886        O  0.37603325  0.52409681  0.44901696    -0.84300
C887        C  0.34671052  0.50649559  0.45507016     1.10900
O888        O  0.62844676  0.62374285  0.47107051    -0.97300
Zr889      Zr  0.55754793  0.59771722  0.46208272     1.88900
O890        O  0.47340925  0.62268319  0.44819493    -0.74000
O891        O  0.40840050  0.52859618  0.47541058    -0.53300
O892        O  0.54539309  0.63129456  0.47442027    -0.97900
O893        O  0.63377147  0.66867987  0.45660002    -0.55100
O894        O  0.52904551  0.65618293  0.45833437    -0.74500
C895        C  0.49866030  0.65750871  0.45323126     0.97800
O896        O  0.40738835  0.51972485  0.43397880    -0.63300
O897        O  0.57863238  0.47276563  0.43389574    -0.58100
O898        O  0.50921682  0.58181577  0.43401558    -0.94800
O899        O  0.57676987  0.56993348  0.43339823    -0.93200
O900        O  0.46299767  0.36857996  0.43705112    -0.93600
O901        O  0.38311797  0.38398498  0.43728892    -0.92400
C902        C  0.55015018  0.58863588  0.43079937     1.16700
H903        H  0.54151300  0.42017337  0.44994353     0.32600
H904        H  0.37772591  0.44318281  0.45075679     0.43500
H905        H  0.56682122  0.61145868  0.44572824     0.37000
H906        H  0.51982531  0.53146994  0.47424049     0.33500
H907        H  0.35108598  0.30773303  0.44895533     0.25300
H908        H  0.38475266  0.50457464  0.47936995     0.31200
H909        H  0.56233495  0.66816568  0.47357610     0.37100
H910        H  0.43657827  0.33257296  0.43691061     0.31600
H911        H  0.61045899  0.49581356  0.43112337     0.30500
H912        H  0.67401359  0.57918754  0.43838293     0.32100
H913        H  0.62221610  0.68573367  0.45287897     0.31100
H914        H  0.39675837  0.41588650  0.43428179     0.35100
H915        H  0.42345787  0.50901528  0.42993538     0.27800
H916        H  0.55452072  0.40566928  0.47785803     0.32100
H917        H  0.64265781  0.66034811  0.47189334     0.34900
H918        H  0.58481186  0.44696682  0.43631911     0.27500
H919        H  0.37581457  0.48834975  0.43529988     0.40400
H920        H  0.33536156  0.40835193  0.47447981     0.30500
H921        H  0.35899839  0.32999867  0.45750822     0.38100
H922        H  0.64868374  0.65329997  0.45319839     0.29900
H923        H  0.44050962  0.54843140  0.47830386     0.30000
H924        H  0.59526802  0.46294947  0.47880278     0.30300
Zr925      Zr  0.54035879  0.05995348  0.55421797     2.17500
O926        O  0.51848798  0.08784266  0.56630739    -0.52100
O927        O  0.62175480  0.13368434  0.55208069    -0.75300
O928        O  0.58713516  0.05439775  0.56545662    -0.82100
O929        O  0.47591486  0.10557045  0.54067782    -0.83800
O930        O  0.58307120  0.97846736  0.56529823    -0.79500
O931        O  0.51727255  0.12438292  0.55242889    -0.91100
O932        O  0.65779370  0.11782324  0.54156276    -0.77100
O933        O  0.58743681  0.02127024  0.55028575    -0.86600
O934        O  0.55164982  0.07261195  0.54026457    -0.86200
O935        O  0.49049010  0.97317421  0.55799130    -0.73000
O936        O  0.45789351  0.02146063  0.54849779    -0.85100
Zr937      Zr  0.46476456  0.90649713  0.53384093     2.26400
Zr938      Zr  0.53681057  0.93397816  0.55345026     2.06300
Zr939      Zr  0.46942174  0.03161983  0.53451719     2.10000
Zr940      Zr  0.59919693  0.03406944  0.53648548     1.78800
O941        O  0.38239250  0.00958303  0.53221057    -0.93900
O942        O  0.67455475  0.03076106  0.53995946    -0.41700
O943        O  0.51725726  0.99365012  0.53079446    -0.78400
O944        O  0.54889522  0.94529051  0.53940494    -0.97100
O945        O  0.45430416  0.89453760  0.54778836    -0.90400
O946        O  0.41713851  0.94468491  0.53783293    -0.93200
C947        C  0.65766858  0.14634176  0.54712100     1.00500
C948        C  0.49390501  0.13282204  0.54687695     1.13500
C949        C  0.59758360  0.02192460  0.56836739     1.04300
O950        O  0.61478637  0.93176143  0.55431458    -0.95400
O951        O  0.52360698  0.85376238  0.54846231    -0.91100
O952        O  0.48617603  0.84173187  0.53645244    -0.84300
C953        C  0.50505313  0.82843325  0.54207644     1.10900
O954        O  0.38034050  0.97270666  0.56180455    -0.97300
Zr955      Zr  0.40898744  0.93460500  0.55193608     1.88900
O956        O  0.37526710  0.84128913  0.53542362    -0.74000
O957        O  0.49532997  0.87452659  0.56422751    -0.53300
O958        O  0.39399948  0.88517770  0.56397045    -0.97900
O959        O  0.32856329  0.93062078  0.54964449    -0.55100
O960        O  0.35109151  0.85040238  0.54771267    -0.74500
C961        C  0.34413246  0.82595799  0.54128425     0.97800
O962        O  0.45124175  0.85319761  0.52233029    -0.63300
O963        O  0.49033549  0.09870943  0.52491506    -0.58100
O964        O  0.47111210  0.93807820  0.52018480    -0.94800
O965        O  0.47233410  0.01250425  0.52062117    -0.93200
O966        O  0.61988722  0.08843831  0.52492612    -0.93600
O967        O  0.62918682  0.00456579  0.52552604    -0.92400
C968        C  0.47366557  0.97706312  0.51679745     1.16700
H969        H  0.56870568  0.10788170  0.53885870     0.32600
H970        H  0.56673792  0.92893636  0.53745359     0.43500
H971        H  0.38512235  0.92979042  0.53515555     0.37000
H972        H  0.48696808  0.97063087  0.56366752     0.33500
H973        H  0.70235015  0.05989042  0.53718865     0.25300
H974        H  0.52151867  0.86781898  0.56633266     0.31200
H975        H  0.35743398  0.86057211  0.56393790     0.37100
H976        H  0.65705689  0.10956987  0.52501178     0.31600
H977        H  0.46372549  0.10778178  0.52545333     0.30500
H978        H  0.37903260  0.00844778  0.52637757     0.32100
H979        H  0.30333150  0.89986670  0.55244950     0.31100
H980        H  0.59855702  0.98265141  0.52241018     0.35100
H981        H  0.48363000  0.85425537  0.52141113     0.27800
H982        H  0.55094251  0.11370530  0.56859843     0.32100
H983        H  0.35779345  0.94512541  0.56541989     0.34900
H984        H  0.52137207  0.12825905  0.52693024     0.27500
H985        H  0.42770742  0.81830294  0.52409905     0.40400
H986        H  0.63052530  0.94272045  0.54903380     0.30500
H987        H  0.68031254  0.04001205  0.54562919     0.38100
H988        H  0.32102205  0.92245468  0.54397026     0.29900
H989        H  0.49062778  0.89423870  0.56843158     0.30000
H990        H  0.50578918  0.05886336  0.56998591     0.30300
Zr991      Zr  0.50937999  0.06320404  0.46553353     2.17500
O992        O  0.51435657  0.12457474  0.47522509    -0.52100
O993        O  0.60008929  0.12519638  0.46462506    -0.75300
O994        O  0.51539920  0.04081556  0.47934439    -0.82100
O995        O  0.45003421  0.11340969  0.45060579    -0.83800
O996        O  0.51327724  0.96585729  0.47939084    -0.79500
O997        O  0.48660039  0.12650005  0.46272663    -0.91100
O998        O  0.63149476  0.10816616  0.45367979    -0.77100
O999        O  0.55503264  0.02203039  0.46219295    -0.86600
O1000       O  0.52395249  0.07432473  0.45158520    -0.86200
O1001       O  0.45170541  0.97662404  0.46900145    -0.73000
O1002       O  0.42767366  0.02629514  0.45922783    -0.85100
Zr1003     Zr  0.43409277  0.90746594  0.44550555     2.26400
Zr1004     Zr  0.49892996  0.93603815  0.46573991     2.06300
Zr1005     Zr  0.44330930  0.03633026  0.44524868     2.10000
Zr1006     Zr  0.56714831  0.03086932  0.44816531     1.78800
O1007       O  0.37080305  0.04485383  0.44189006    -0.93900
O1008       O  0.63655787  0.01640804  0.45116876    -0.41700
O1009       O  0.48749762  0.99355322  0.44157598    -0.78400
O1010       O  0.51517727  0.94497085  0.45175693    -0.97100
O1011       O  0.41867289  0.89749488  0.45935522    -0.90400
O1012       O  0.38895570  0.94973403  0.44865608    -0.93200
C1013       C  0.63604504  0.13497309  0.45972744     1.00500
C1014       C  0.46697998  0.13857349  0.45705807     1.13500
C1015       C  0.51531331  0.00376156  0.48296747     1.04300
O1016       O  0.58254833  0.94960314  0.46860165    -0.95400
O1017       O  0.49350808  0.85999644  0.46054781    -0.91100
O1018       O  0.45250901  0.84085912  0.44870065    -0.84300
C1019       C  0.47543246  0.83252997  0.45435831     1.10900
O1020       O  0.33921536  0.97138822  0.47231376    -0.97300
Zr1021     Zr  0.37295777  0.93876303  0.46236132     1.88900
O1022       O  0.35242891  0.83358058  0.44781195    -0.74000
O1023       O  0.45913029  0.86385042  0.47463984    -0.53300
O1024       O  0.34814826  0.88814026  0.47440195    -0.97900
O1025       O  0.30073245  0.94458464  0.45776901    -0.55100
O1026       O  0.31796214  0.85155930  0.45831325    -0.74500
C1027       C  0.31771999  0.82142307  0.45300211     0.97800
O1028       O  0.45803780  0.87961982  0.43358620    -0.63300
O1029       O  0.49616112  0.09628938  0.43514533    -0.58100
O1030       O  0.39054174  0.91216738  0.43376429    -0.94800
O1031       O  0.40063890  0.99092315  0.43316319    -0.93200
O1032       O  0.59524597  0.08981664  0.43711209    -0.93600
O1033       O  0.59491554  0.00174861  0.43686670    -0.92400
C1034       C  0.38390288  0.94614209  0.43042969     1.16700
H1035       H  0.54362743  0.10963054  0.45023097     0.32600
H1036       H  0.53318623  0.92814562  0.45016456     0.43500
H1037       H  0.35725441  0.93544965  0.44588030     0.37000
H1038       H  0.44067528  0.97181618  0.47443107     0.33500
H1039       H  0.66685373  0.04617617  0.44900198     0.25300
H1040       H  0.48700847  0.86569782  0.47784778     0.31200
H1041       H  0.35681384  0.86158521  0.47340681     0.37100
H1042       H  0.63245683  0.10847768  0.43747115     0.31600
H1043       H  0.50306506  0.07601353  0.43133187     0.30500
H1044       H  0.38337535  0.07184768  0.43784474     0.32100
H1045       H  0.28374557  0.91731098  0.45382724     0.31100
H1046       H  0.57910946  0.96488280  0.43760369     0.35100
H1047       H  0.47180619  0.90898392  0.42997065     0.27800
H1048       H  0.54491601  0.13418811  0.47841321     0.32100
H1049       H  0.30498287  0.94331984  0.47354020     0.34900
H1050       H  0.47337981  0.10489960  0.43226872     0.27500
H1051       H  0.48788711  0.87713324  0.43509554     0.40400
H1052       H  0.57695232  0.92399536  0.47265674     0.30500
H1053       H  0.64072019  0.02033099  0.45697773     0.38100
H1054       H  0.31547453  0.97609085  0.45463519     0.29900
H1055       H  0.43926741  0.87167728  0.47839777     0.30000
H1056       H  0.48571744  0.10575424  0.47889884     0.30300
Zr1057     Zr  0.90670538  0.46528409  0.55433205     2.17500
O1058       O  0.87637632  0.41380650  0.56626949    -0.52100
O1059       O  0.83553231  0.47725786  0.55233940    -0.75300
O1060       O  0.91555086  0.51575285  0.56589046    -0.82100
O1061       O  0.85913628  0.35173041  0.54130055    -0.83800
O1062       O  0.99234290  0.58716962  0.56548323    -0.79500
O1063       O  0.83926410  0.37888911  0.55252074    -0.91100
O1064       O  0.85338174  0.52857556  0.54168095    -0.77100
O1065       O  0.94927031  0.55161869  0.55044473    -0.86600
O1066       O  0.89435513  0.46492497  0.54040748    -0.86200
O1067       O  0.99328750  0.49881709  0.55801196    -0.73000
O1068       O  0.94108261  0.41769734  0.54866286    -0.85100
Zr1069     Zr  0.05976848  0.53719929  0.53395158     2.26400
Zr1070     Zr  0.03631511  0.58472399  0.55353133     2.06300
Zr1071     Zr  0.93109411  0.41972483  0.53468109     2.10000
Zr1072     Zr  0.93684360  0.55134270  0.53663792     1.78800
O1073       O  0.94789071  0.35170549  0.53180746    -0.93900
O1074       O  0.94746708  0.63285155  0.54032480    -0.41700
O1075       O  0.97315250  0.50603252  0.53083496    -0.78400
O1076       O  0.02506529  0.58610450  0.53952503    -0.97100
O1077       O  0.07114356  0.53739879  0.54789421    -0.90400
O1078       O  0.01770059  0.45099780  0.53792676    -0.93200
C1079       C  0.82425212  0.50134822  0.54732241     1.00500
C1080       C  0.83171297  0.34480694  0.54742019     1.13500
C1081       C  0.94932222  0.55811296  0.56873762     1.04300
O1082       O  0.04400749  0.66768648  0.55365114    -0.95400
O1083       O  0.12102590  0.64367644  0.54858840    -0.91100
O1084       O  0.12599057  0.62383273  0.53580008    -0.84300
C1085       C  0.14398746  0.65213022  0.54189054     1.10900
O1086       O  0.99766624  0.40176312  0.56409534    -0.97300
Zr1087     Zr  0.02741725  0.45178067  0.55200748     1.88900
O1088       O  0.12203554  0.50949153  0.53552630    -0.74000
O1089       O  0.09474315  0.60515320  0.56451754    -0.53300
O1090       O  0.09116984  0.48599651  0.56236558    -0.97900
O1091       O  0.00859698  0.36562888  0.54966123    -0.55100
O1092       O  0.10457981  0.46312153  0.54675164    -0.74500
C1093       C  0.13192162  0.48490307  0.54071626     0.97800
O1094       O  0.12236743  0.58085091  0.52358966    -0.63300
O1095       O  0.85848920  0.37940344  0.52587584    -0.58100
O1096       O  0.02693373  0.51048275  0.52043083    -0.94800
O1097       O  0.95127193  0.43857625  0.52074327    -0.93200
O1098       O  0.88355781  0.52493299  0.52491779    -0.93600
O1099       O  0.96943782  0.61021236  0.52558156    -0.92400
C1100       C  0.98776927  0.47485080  0.51698359     1.16700
H1101       H  0.85908041  0.44820122  0.53904286     0.32600
H1102       H  0.04280003  0.62028383  0.53756111     0.43500
H1103       H  0.03084596  0.43230062  0.53522957     0.37000
H1104       H  0.99602115  0.49767220  0.56368348     0.33500
H1105       H  0.92437660  0.63751083  0.53679237     0.25300
H1106       H  0.10153861  0.63863422  0.56635123     0.31200
H1107       H  0.10567622  0.46354334  0.56253339     0.37100
H1108       H  0.86191747  0.54016123  0.52552061     0.31600
H1109       H  0.84787632  0.34314029  0.52593279     0.30500
H1110       H  0.93800380  0.34306227  0.52620220     0.32100
H1111       H  0.02578081  0.36692732  0.54463512     0.31100
H1112       H  0.99429241  0.60323738  0.52300305     0.35100
H1113       H  0.12446563  0.55428082  0.52058880     0.27800
H1114       H  0.85004065  0.42004268  0.56845474     0.32100
H1115       H  0.01947951  0.38684706  0.56484825     0.34900
H1116       H  0.83108827  0.38149894  0.52861951     0.27500
H1117       H  0.10736590  0.59469037  0.51987316     0.40400
H1118       H  0.05332613  0.68046361  0.54817123     0.30500
H1119       H  0.93200582  0.62759494  0.54563636     0.38100
H1120       H  0.97229836  0.34684558  0.54834139     0.29900
H1121       H  0.07470088  0.58173750  0.56882408     0.30000
H1122       H  0.90450045  0.42946187  0.57010014     0.30300
Zr1123     Zr  0.90742330  0.43361059  0.46575570     2.17500
O1124       O  0.84219787  0.38360153  0.47547584    -0.52100
O1125       O  0.84441407  0.46006984  0.46372210    -0.75300
O1126       O  0.92952635  0.46215197  0.47949554    -0.82100
O1127       O  0.85409417  0.32214897  0.45162399    -0.83800
O1128       O  0.00741243  0.53131018  0.47974658    -0.79500
O1129       O  0.84480786  0.34666897  0.46388487    -0.91100
O1130       O  0.86411257  0.50678327  0.45249341    -0.77100
O1131       O  0.95491891  0.52086321  0.46261386    -0.86600
O1132       O  0.89785731  0.43817158  0.45180901    -0.86200
O1133       O  0.99207261  0.45615522  0.46940020    -0.73000
O1134       O  0.93898371  0.38359048  0.45958832    -0.85100
Zr1135     Zr  0.06353911  0.50444161  0.44596078     2.26400
Zr1136     Zr  0.03949463  0.54400736  0.46622226     2.06300
Zr1137     Zr  0.93064021  0.39065012  0.44563166     2.10000
Zr1138     Zr  0.94690407  0.52525191  0.44857372     1.78800
O1139       O  0.90278367  0.30616070  0.44072841    -0.93900
O1140       O  0.95838192  0.60644101  0.45269043    -0.41700
O1141       O  0.97872319  0.47772302  0.44196176    -0.78400
O1142       O  0.03177295  0.55307463  0.45225005    -0.97100
O1143       O  0.07226034  0.49728895  0.45981522    -0.90400
O1144       O  0.01582926  0.41683945  0.44913887    -0.93200
C1145       C  0.83456652  0.48304664  0.45824030     1.00500
C1146       C  0.83076082  0.31465094  0.45826212     1.13500
C1147       C  0.96764458  0.49702743  0.48321030     1.04300
O1148       O  0.04149613  0.62244824  0.46930738    -0.95400
O1149       O  0.12000307  0.60984284  0.46121764    -0.91100
O1150       O  0.13546419  0.58740193  0.44917407    -0.84300
C1151       C  0.14750013  0.61815194  0.45504264     1.10900
O1152       O  0.98263297  0.34140162  0.47234747    -0.97300
Zr1153     Zr  0.02494106  0.41016010  0.46286128     1.88900
O1154       O  0.13180715  0.48862744  0.44829541    -0.74000
O1155       O  0.10574395  0.55817099  0.47557172    -0.53300
O1156       O  0.06938719  0.42399008  0.47537985    -0.97900
O1157       O  0.01860585  0.33294710  0.45767815    -0.55100
O1158       O  0.11307586  0.44156604  0.45951134    -0.74500
C1159       C  0.14296229  0.46773061  0.45387598     0.97800
O1160       O  0.09691806  0.55602612  0.43406672    -0.63300
O1161       O  0.87697434  0.39691492  0.43561769    -0.58100
O1162       O  0.05517379  0.45494651  0.43414800    -0.94800
O1163       O  0.97694832  0.38530021  0.43423425    -0.93200
O1164       O  0.89790955  0.50730959  0.43646354    -0.93600
O1165       O  0.98792086  0.58870701  0.43827901    -0.92400
C1166       C  0.02101836  0.41282068  0.43121906     1.16700
H1167       H  0.86289178  0.42391459  0.45035192     0.32600
H1168       H  0.05132662  0.58796967  0.45070304     0.43500
H1169       H  0.02858318  0.39791690  0.44642455     0.37000
H1170       H  0.99534279  0.44926678  0.47486242     0.33500
H1171       H  0.93665437  0.61266524  0.44908185     0.25300
H1172       H  0.10580308  0.58193736  0.47953658     0.31200
H1173       H  0.08911245  0.40667239  0.47479676     0.37100
H1174       H  0.88441521  0.53063670  0.43656278     0.31600
H1175       H  0.88767542  0.38865536  0.43058079     0.30500
H1176       H  0.87853514  0.30089200  0.43645915     0.32100
H1177       H  0.04684151  0.34390185  0.45389370     0.31100
H1178       H  0.00583425  0.57598086  0.43498230     0.35100
H1179       H  0.06855995  0.54202366  0.43026666     0.27800
H1180       H  0.83433418  0.40728353  0.47823898     0.32100
H1181       H  0.00400335  0.32579225  0.47282631     0.34900
H1182       H  0.84309144  0.36772074  0.43665059     0.27500
H1183       H  0.10127878  0.58928811  0.43547706     0.40400
H1184       H  0.06778639  0.63838305  0.47342630     0.30500
H1185       H  0.94142781  0.60000506  0.45789719     0.38100
H1186       H  0.98788597  0.31761285  0.45436125     0.29900
H1187       H  0.09277740  0.52592481  0.47846198     0.30000
H1188       H  0.85816038  0.37270591  0.47951530     0.30300
Zr1189     Zr  0.13707251  0.24700733  0.27932890     2.17500
O1190       O  0.08454139  0.21481160  0.26755902    -0.52100
O1191       O  0.15404668  0.17852099  0.28113039    -0.75300
O1192       O  0.18633132  0.25769031  0.26748444    -0.82100
O1193       O  0.03073966  0.19121017  0.29388942    -0.83800
O1194       O  0.25460434  0.33650678  0.26738314    -0.79500
O1195       O  0.05203840  0.17837087  0.28159032    -0.91100
O1196       O  0.21121225  0.20003599  0.29101975    -0.77100
O1197       O  0.22443151  0.29463310  0.28229808    -0.86600
O1198       O  0.14344647  0.23497988  0.29312429    -0.86200
O1199       O  0.16265269  0.33224430  0.27573939    -0.73000
O1200       O  0.08800473  0.27649428  0.28605471    -0.85100
Zr1201     Zr  0.20864378  0.39946516  0.29982586     2.26400
Zr1202     Zr  0.24985843  0.38021914  0.27927256     2.06300
Zr1203     Zr  0.09714760  0.26707842  0.29985068     2.10000
Zr1204     Zr  0.23103847  0.28244869  0.29596726     1.78800
O1205       O  0.02661561  0.27769100  0.30375263    -0.93900
O1206       O  0.31170649  0.29661955  0.29099748    -0.41700
O1207       O  0.18473329  0.31425640  0.30276745    -0.78400
O1208       O  0.25870254  0.36943164  0.29315237    -0.97100
O1209       O  0.20165294  0.41041847  0.28600401    -0.90400
O1210       O  0.12097037  0.35240620  0.29679692    -0.93200
C1211       C  0.18117814  0.16909662  0.28581181     1.00500
C1212       C  0.02138461  0.16616713  0.28743415     1.13500
C1213       C  0.22726609  0.29236968  0.26434988     1.04300
O1214       O  0.33716377  0.40510341  0.27657496    -0.95400
O1215       O  0.31122818  0.46319776  0.28434260    -0.91100
O1216       O  0.29303791  0.46846809  0.29719974    -0.84300
C1217       C  0.32079735  0.48622717  0.29103449     1.10900
O1218       O  0.04899539  0.31538145  0.27302964    -0.97300
Zr1219     Zr  0.11469306  0.36173107  0.28280619     1.88900
O1220       O  0.17643915  0.45860145  0.29876009    -0.74000
O1221       O  0.24794597  0.43427243  0.26887455    -0.53300
O1222       O  0.13812465  0.41509667  0.27108162    -0.97900
O1223       O  0.03335563  0.35302803  0.28617501    -0.55100
O1224       O  0.13047080  0.44190822  0.28752937    -0.74500
C1225       C  0.15212339  0.46902027  0.29358922     0.97800
O1226       O  0.25367252  0.46352605  0.30988509    -0.63300
O1227       O  0.06480198  0.19625169  0.30905178    -0.58100
O1228       O  0.18833990  0.36656976  0.31360696    -0.94800
O1229       O  0.12171574  0.28695777  0.31356405    -0.93200
O1230       O  0.20952951  0.22976639  0.30774059    -0.93600
O1231       O  0.29441073  0.31584826  0.30635664    -0.92400
C1232       C  0.15652023  0.32539686  0.31716461     1.16700
H1233       H  0.12908943  0.19991645  0.29452128     0.32600
H1234       H  0.29368100  0.38865089  0.29468312     0.43500
H1235       H  0.10209808  0.36390850  0.29985630     0.37000
H1236       H  0.15858252  0.33440141  0.27010980     0.33500
H1237       H  0.31366882  0.26692914  0.29280023     0.25300
H1238       H  0.28382723  0.45827860  0.26771343     0.31200
H1239       H  0.11790769  0.43202732  0.27139816     0.37100
H1240       H  0.17990195  0.23004001  0.31000507     0.31600
H1241       H  0.02814267  0.18341389  0.30941443     0.30500
H1242       H  0.00252211  0.26331124  0.29930621     0.32100
H1243       H  0.03129810  0.37893363  0.28295689     0.31100
H1244       H  0.29084764  0.34332148  0.30876247     0.35100
H1245       H  0.22751581  0.46686071  0.31279560     0.27800
H1246       H  0.09417361  0.19189154  0.26497887     0.32100
H1247       H  0.04439981  0.34089390  0.27014624     0.34900
H1248       H  0.06782225  0.16948302  0.30627336     0.27500
H1249       H  0.26718246  0.44892637  0.31372926     0.40400
H1250       H  0.34463750  0.38470454  0.28028157     0.30500
H1251       H  0.30747893  0.29239712  0.28519220     0.38100
H1252       H  0.03686639  0.36531591  0.29168067     0.29900
H1253       H  0.23548044  0.41260266  0.26412286     0.30000
H1254       H  0.09645928  0.24395563  0.26393073     0.30300
Zr1255     Zr  0.10158748  0.23683313  0.36793349     2.17500
O1256       O  0.04911072  0.17684816  0.35777780    -0.52100
O1257       O  0.13245359  0.17695075  0.36958557    -0.75300
O1258       O  0.13475358  0.26042461  0.35428199    -0.82100
O1259       O  0.98717715  0.18301309  0.38192970    -0.83800
O1260       O  0.20556259  0.33723727  0.35478579    -0.79500
O1261       O  0.01500627  0.17184360  0.37004667    -0.91100
O1262       O  0.18459699  0.19862127  0.38015909    -0.77100
O1263       O  0.18711120  0.27926055  0.37205681    -0.86600
O1264       O  0.09980232  0.22549913  0.38198298    -0.86200
O1265       O  0.12954745  0.32308510  0.36449660    -0.73000
O1266       O  0.05273837  0.27133719  0.37359082    -0.85100
Zr1267     Zr  0.17270578  0.39098499  0.38811628     2.26400
Zr1268     Zr  0.21615971  0.36496678  0.36847309     2.06300
Zr1269     Zr  0.05321931  0.26155308  0.38766938     2.10000
Zr1270     Zr  0.18525979  0.26957798  0.38615022     1.78800
O1271       O  0.97106682  0.25509356  0.38883659    -0.93900
O1272       O  0.27399811  0.29423888  0.38562250    -0.41700
O1273       O  0.13890582  0.30475861  0.39203996    -0.78400
O1274       O  0.21959575  0.35545144  0.38249783    -0.97100
O1275       O  0.17086475  0.40167030  0.37420670    -0.90400
O1276       O  0.08628462  0.34806017  0.38429896    -0.93200
C1277       C  0.16165098  0.17018452  0.37429432     1.00500
C1278       C  0.98162336  0.15840779  0.37548631     1.13500
C1279       C  0.17170429  0.29923015  0.35095490     1.04300
O1280       O  0.28776855  0.35230345  0.36669734    -0.95400
O1281       O  0.28284009  0.44228013  0.37396926    -0.91100
O1282       O  0.25863807  0.45926273  0.38571246    -0.84300
C1283       C  0.29119588  0.46922240  0.38019687     1.10900
O1284       O  0.02679962  0.32913756  0.35930487    -0.97300
Zr1285     Zr  0.08456571  0.35857048  0.37051793     1.88900
O1286       O  0.16085452  0.46200250  0.38565297    -0.74000
O1287       O  0.25165933  0.43692675  0.35950597    -0.53300
O1288       O  0.11503035  0.41510640  0.35914140    -0.97900
O1289       O  0.00090094  0.34349544  0.37396554    -0.55100
O1290       O  0.10594399  0.44120339  0.37543305    -0.74500
C1291       C  0.13477956  0.47164510  0.38077659     0.97800
O1292       O  0.22080741  0.41813613  0.40040815    -0.63300
O1293       O  0.03788214  0.20228960  0.39836011    -0.58100
O1294       O  0.12199957  0.38445807  0.39955656    -0.94800
O1295       O  0.05126398  0.30704816  0.39955732    -0.93200
O1296       O  0.14974547  0.20104724  0.39575029    -0.93600
O1297       O  0.22726340  0.29620656  0.39892052    -0.92400
C1298       C  0.07950614  0.35138323  0.40249423     1.16700
H1299       H  0.08426587  0.19012823  0.38330696     0.32600
H1300       H  0.25390242  0.37291333  0.38436255     0.43500
H1301       H  0.06793713  0.36203690  0.38687423     0.37000
H1302       H  0.12480928  0.32797418  0.35900177     0.33500
H1303       H  0.27610343  0.26708409  0.38844452     0.25300
H1304       H  0.27336211  0.43136521  0.35579188     0.31200
H1305       H  0.10036720  0.43725086  0.35973766     0.37100
H1306       H  0.17667531  0.19281274  0.39668418     0.31600
H1307       H  0.06877367  0.21897938  0.40162788     0.30500
H1308       H  0.95191290  0.22675482  0.39254384     0.32100
H1309       H  0.00499297  0.36182602  0.37897429     0.31100
H1310       H  0.24662526  0.33343544  0.39863225     0.35100
H1311       H  0.20417603  0.38860088  0.40397806     0.27800
H1312       H  0.07090508  0.16652441  0.35499835     0.32100
H1313       H  0.01578428  0.35421913  0.35860090     0.34900
H1314       H  0.01170547  0.20318852  0.40166652     0.27500
H1315       H  0.25359882  0.42076542  0.39918757     0.40400
H1316       H  0.31254488  0.38218191  0.36367133     0.30500
H1317       H  0.28032228  0.29011169  0.38000191     0.38100
H1318       H  0.98164397  0.30745341  0.37544871     0.29900
H1319       H  0.22288541  0.43263556  0.35626943     0.30000
H1320       H  0.04181936  0.19627631  0.35384035     0.30300
Zr1321     Zr  0.10404777  0.84816442  0.28002395     2.17500
O1322       O  0.12237993  0.89996623  0.26818059    -0.52100
O1323       O  0.02204688  0.83936855  0.28209402    -0.75300
O1324       O  0.05941325  0.79546404  0.26863647    -0.82100
O1325       O  0.17631264  0.96243767  0.29372301    -0.83800
O1326       O  0.06193095  0.72268037  0.26900011    -0.79500
O1327       O  0.13142601  0.93692889  0.28225124    -0.91100
O1328       O  0.98883773  0.79003091  0.29299906    -0.77100
O1329       O  0.05913261  0.76156228  0.28366979    -0.86600
O1330       O  0.09145998  0.84741308  0.29395966    -0.86200
O1331       O  0.15584558  0.81357100  0.27617414    -0.73000
O1332       O  0.18555044  0.89270932  0.28596473    -0.85100
Zr1333     Zr  0.18213730  0.77128037  0.30012683     2.26400
Zr1334     Zr  0.11192898  0.72722155  0.28051860     2.06300
Zr1335     Zr  0.17279665  0.88971815  0.29999610     2.10000
Zr1336     Zr  0.04554539  0.76061552  0.29741660     1.78800
O1337       O  0.25622977  0.95617501  0.30393785    -0.93900
O1338       O  0.97164981  0.68471070  0.29259248    -0.41700
O1339       O  0.12710787  0.80289223  0.30332988    -0.78400
O1340       O  0.09815815  0.72470536  0.29451405    -0.97100
O1341       O  0.19427101  0.77178655  0.28620981    -0.90400
O1342       O  0.22718492  0.85795402  0.29643830    -0.93200
C1343       C  0.98765876  0.81750752  0.28734513     1.00500
C1344       C  0.15785394  0.97055166  0.28745541     1.13500
C1345       C  0.04812869  0.75197588  0.26584553     1.04300
O1346       O  0.03995182  0.64378958  0.27840114    -0.95400
O1347       O  0.12297717  0.65919547  0.28588516    -0.91100
O1348       O  0.16196564  0.68511978  0.29775934    -0.84300
C1349       C  0.14169843  0.65230213  0.29225795     1.10900
O1350       O  0.26134226  0.90803701  0.27022564    -0.97300
Zr1351     Zr  0.23683656  0.85806420  0.28234372     1.88900
O1352       O  0.27291063  0.80019784  0.29878611    -0.74000
O1353       O  0.15904581  0.71605206  0.26989318    -0.53300
O1354       O  0.26212798  0.81922288  0.27210623    -0.97900
O1355       O  0.30406572  0.94493230  0.28420400    -0.55100
O1356       O  0.30370585  0.84959457  0.28788129    -0.74500
C1357       C  0.30856694  0.82693870  0.29384809     0.97800
O1358       O  0.19808143  0.73274796  0.31158866    -0.63300
O1359       O  0.13370050  0.92502235  0.30848917    -0.58100
O1360       O  0.17342618  0.79286358  0.31375362    -0.94800
O1361       O  0.17456142  0.86734077  0.31385949    -0.93200
O1362       O  0.02134560  0.78537749  0.30959164    -0.93600
O1363       O  0.01109580  0.69565609  0.30759486    -0.92400
C1364       C  0.17169218  0.82880439  0.31738597     1.16700
H1365       H  0.07394953  0.86504006  0.29538423     0.32600
H1366       H  0.08077933  0.69035939  0.29639719     0.43500
H1367       H  0.25899271  0.87638157  0.29915622     0.37000
H1368       H  0.15982821  0.81520894  0.27049629     0.33500
H1369       H  0.94338723  0.68182353  0.29582303     0.25300
H1370       H  0.13893097  0.67984590  0.26854481     0.31200
H1371       H  0.29934761  0.83672499  0.27236601     0.37100
H1372       H  0.05133064  0.79825646  0.31304730     0.31600
H1373       H  0.11133492  0.93115639  0.30502112     0.30500
H1374       H  0.24982004  0.97892854  0.30726373     0.32100
H1375       H  0.32503747  0.94372196  0.28855188     0.31100
H1376       H  0.04102581  0.69785406  0.31020258     0.35100
H1377       H  0.16601934  0.70138184  0.31268328     0.27800
H1378       H  0.08917021  0.89039998  0.26585198     0.32100
H1379       H  0.29677911  0.91732907  0.26923471     0.34900
H1380       H  0.11018179  0.89688500  0.31193814     0.27500
H1381       H  0.22145564  0.72140786  0.30974149     0.40400
H1382       H  0.01294615  0.64292837  0.28172013     0.30500
H1383       H  0.96532498  0.69342009  0.28723555     0.38100
H1384       H  0.28719735  0.96221373  0.28653877     0.29900
H1385       H  0.15497816  0.73359505  0.26527870     0.30000
H1386       H  0.13791149  0.88689063  0.26443574     0.30300
Zr1387     Zr  0.12331852  0.86414595  0.36814316     2.17500
O1388       O  0.11657574  0.91934944  0.35840939    -0.52100
O1389       O  0.03198934  0.83208895  0.36933484    -0.75300
O1390       O  0.11719845  0.83553540  0.35442423    -0.82100
O1391       O  0.18218428  0.97638838  0.38230282    -0.83800
O1392       O  0.12234935  0.76426685  0.35428516    -0.79500
O1393       O  0.14228349  0.94957843  0.37048984    -0.91100
O1394       O  0.00119027  0.78214530  0.38015456    -0.77100
O1395       O  0.07867464  0.77767939  0.37181457    -0.86600
O1396       O  0.11208915  0.86352324  0.38212879    -0.86200
O1397       O  0.18162381  0.83617554  0.36463082    -0.73000
O1398       O  0.20672046  0.91170115  0.37385210    -0.85100
Zr1399     Zr  0.20284704  0.78897644  0.38810517     2.26400
Zr1400     Zr  0.13513943  0.74859581  0.36809526     2.06300
Zr1401     Zr  0.19445982  0.90947218  0.38785183     2.10000
Zr1402     Zr  0.06973153  0.77723551  0.38591963     1.78800
O1403       O  0.26871398  0.99260909  0.38917332    -0.93900
O1404       O  0.00686104  0.68820850  0.38474628    -0.41700
O1405       O  0.15074682  0.82307844  0.39201448    -0.78400
O1406       O  0.12122178  0.74319139  0.38214918    -0.97100
O1407       O  0.21638782  0.79220038  0.37419445    -0.90400
O1408       O  0.24771523  0.87599873  0.38455490    -0.93200
C1409       C  0.99591675  0.80417756  0.37413621     1.00500
C1410       C  0.16249403  0.98249844  0.37596865     1.13500
C1411       C  0.11962205  0.80003785  0.35076594     1.04300
O1412       O  0.04935956  0.67985256  0.36617071    -0.95400
O1413       O  0.14421924  0.68025310  0.37343034    -0.91100
O1414       O  0.18682108  0.70433890  0.38512069    -0.84300
C1415       C  0.16390916  0.67224490  0.37956233     1.10900
O1416       O  0.29046188  0.94020490  0.36006568    -0.97300
Zr1417     Zr  0.26156237  0.87894101  0.37082632     1.88900
O1418       O  0.28572843  0.80008295  0.38607343    -0.74000
O1419       O  0.16834502  0.70997350  0.35913869    -0.53300
O1420       O  0.28721672  0.85122356  0.35910887    -0.97900
O1421       O  0.33450899  0.95881121  0.37471074    -0.55100
O1422       O  0.31879221  0.85077720  0.37529918    -0.74500
C1423       C  0.32014602  0.82284681  0.38085242     0.97800
O1424       O  0.17663376  0.73621156  0.39993642    -0.63300
O1425       O  0.15070769  0.92363111  0.39870075    -0.58100
O1426       O  0.24468354  0.83717121  0.39993799    -0.94800
O1427       O  0.24289152  0.91058311  0.39945399    -0.93200
O1428       O  0.03340663  0.80828008  0.39566239    -0.93600
O1429       O  0.05171244  0.73384549  0.39861411    -0.92400
C1430       C  0.25565374  0.88059019  0.40269287     1.16700
H1431       H  0.09225526  0.87890822  0.38348627     0.32600
H1432       H  0.10412306  0.70859171  0.38389656     0.43500
H1433       H  0.27988283  0.89367472  0.38719359     0.37000
H1434       H  0.19266304  0.84246940  0.35920475     0.33500
H1435       H  0.97822693  0.68370588  0.38804436     0.25300
H1436       H  0.13899167  0.68544890  0.35599640     0.31200
H1437       H  0.27402181  0.81480090  0.35997131     0.37100
H1438       H  0.06226619  0.83210087  0.39894866     0.31600
H1439       H  0.16348814  0.91598292  0.40357588     0.30500
H1440       H  0.26278293  0.00669469  0.39405647     0.32100
H1441       H  0.34972616  0.95087975  0.37925020     0.31100
H1442       H  0.06997127  0.71489329  0.39844244     0.35100
H1443       H  0.15974910  0.75010059  0.40321666     0.27800
H1444       H  0.08496607  0.89806895  0.35547034     0.32100
H1445       H  0.32607671  0.94996233  0.35913184     0.34900
H1446       H  0.16505058  0.96059452  0.39882889     0.27500
H1447       H  0.14867417  0.70302070  0.39824913     0.40400
H1448       H  0.04501476  0.67636684  0.36035979     0.30500
H1449       H  0.99446152  0.68424226  0.37924014     0.38100
H1450       H  0.32014527  0.97854412  0.37701002     0.29900
H1451       H  0.18988729  0.73673148  0.35533443     0.30000
H1452       H  0.14399486  0.92827256  0.35452855     0.30300
Zr1453     Zr  0.73548480  0.88018142  0.27987338     2.17500
O1454       O  0.76279646  0.85565227  0.26796534    -0.52100
O1455       O  0.80802520  0.96225060  0.28208806    -0.75300
O1456       O  0.72933083  0.92414322  0.26830048    -0.82100
O1457       O  0.79085456  0.83063825  0.29455862    -0.83800
O1458       O  0.65355561  0.92072343  0.26857825    -0.79500
O1459       O  0.80256708  0.86155493  0.28201870    -0.91100
O1460       O  0.79192384  0.99442681  0.29310572    -0.77100
O1461       O  0.69494863  0.92589951  0.28367483    -0.86600
O1462       O  0.74699823  0.89134922  0.29386179    -0.86200
O1463       O  0.64911551  0.82907093  0.27601478    -0.73000
O1464       O  0.69994518  0.79789954  0.28564203    -0.85100
Zr1465     Zr  0.58062071  0.80135975  0.29979846     2.26400
Zr1466     Zr  0.60801637  0.87397404  0.28038124     2.06300
Zr1467     Zr  0.70792717  0.80928005  0.29963797     2.10000
Zr1468     Zr  0.70634186  0.93702262  0.29751713     1.78800
O1469       O  0.68624637  0.72140401  0.30034637    -0.93900
O1470       O  0.70439059  0.01277576  0.29377296    -0.41700
O1471       O  0.66713438  0.85490671  0.30313144    -0.78400
O1472       O  0.61825712  0.88584705  0.29441293    -0.97100
O1473       O  0.57087597  0.79096406  0.28584318    -0.90400
O1474       O  0.62144425  0.75565859  0.29612059    -0.93200
C1475       C  0.82074012  0.99574844  0.28748268     1.00500
C1476       C  0.81611910  0.84609004  0.28808798     1.13500
C1477       C  0.69667676  0.93435910  0.26541886     1.04300
O1478       O  0.60229498  0.95001761  0.27935031    -0.95400
O1479       O  0.52828831  0.86164718  0.28559209    -0.91100
O1480       O  0.51750647  0.82538648  0.29770115    -0.84300
C1481       C  0.50388663  0.84401928  0.29209735     1.10900
O1482       O  0.66058745  0.72810779  0.27230280    -0.97300
Zr1483     Zr  0.61377860  0.74752114  0.28200012     1.88900
O1484       O  0.51400210  0.71367734  0.29731782    -0.74000
O1485       O  0.54735948  0.83151878  0.26981168    -0.53300
O1486       O  0.56727097  0.72510370  0.26958535    -0.97900
O1487       O  0.61040934  0.66820652  0.28518749    -0.55100
O1488       O  0.52862301  0.68866678  0.28547751    -0.74500
C1489       C  0.50100891  0.68253275  0.29149410     0.97800
O1490       O  0.52445259  0.78054918  0.31116971    -0.63300
O1491       O  0.76358961  0.81278598  0.31019482    -0.58100
O1492       O  0.60833105  0.80543487  0.31357065    -0.94800
O1493       O  0.68652827  0.81514034  0.31342197    -0.93200
O1494       O  0.75556262  0.95663277  0.30962467    -0.93600
O1495       O  0.67406675  0.96582863  0.30825267    -0.92400
C1496       C  0.64843580  0.81218487  0.31711199     1.16700
H1497       H  0.78202436  0.90912448  0.29538344     0.32600
H1498       H  0.60171204  0.90347190  0.29635632     0.43500
H1499       H  0.60621844  0.72359571  0.29882752     0.37000
H1500       H  0.64692275  0.82553389  0.27033364     0.33500
H1501       H  0.73200258  0.04016639  0.29683873     0.25300
H1502       H  0.55058069  0.85903175  0.26635012     0.31200
H1503       H  0.55257336  0.68818595  0.26913297     0.37100
H1504       H  0.77347384  0.99384275  0.30998336     0.31600
H1505       H  0.77969601  0.79368232  0.30830770     0.30500
H1506       H  0.70814639  0.71843335  0.29633627     0.32100
H1507       H  0.58716758  0.64388170  0.28123157     0.31100
H1508       H  0.65439606  0.93556791  0.31158828     0.35100
H1509       H  0.52516631  0.81218531  0.31262287     0.27800
H1510       H  0.78780157  0.88755571  0.26540282     0.32100
H1511       H  0.63610149  0.69554187  0.26987843     0.34900
H1512       H  0.79091989  0.84837332  0.31039429     0.27500
H1513       H  0.49005490  0.75832471  0.30910704     0.40400
H1514       H  0.61639650  0.96800818  0.28439051     0.30500
H1515       H  0.71637400  0.01950940  0.28822458     0.38100
H1516       H  0.59175109  0.65667162  0.29024304     0.29900
H1517       H  0.56154638  0.81438792  0.26665628     0.30000
H1518       H  0.73327998  0.84121419  0.26439157     0.30300
Zr1519     Zr  0.72781646  0.84386295  0.36790754     2.17500
O1520       O  0.78589634  0.84858313  0.35761116    -0.52100
O1521       O  0.78829918  0.93399894  0.36931961    -0.75300
O1522       O  0.70454372  0.85520487  0.35450124    -0.82100
O1523       O  0.78346640  0.78666543  0.38193401    -0.83800
O1524       O  0.62767267  0.84867894  0.35458871    -0.79500
O1525       O  0.79434616  0.82422971  0.36994035    -0.91100
O1526       O  0.76583072  0.96503993  0.37971449    -0.77100
O1527       O  0.68318420  0.88554450  0.37158119    -0.86600
O1528       O  0.73908743  0.85639786  0.38185201    -0.86200
O1529       O  0.64196994  0.78452055  0.36445871    -0.73000
O1530       O  0.69480790  0.76144156  0.37376137    -0.85100
Zr1531     Zr  0.57365893  0.76032656  0.38810238     2.26400
Zr1532     Zr  0.59734000  0.82703981  0.36817971     2.06300
Zr1533     Zr  0.70511609  0.77466897  0.38773622     2.10000
Zr1534     Zr  0.69268687  0.89613707  0.38560666     1.78800
O1535       O  0.71716258  0.70261242  0.38945612    -0.93900
O1536       O  0.66503747  0.95703227  0.38343057    -0.41700
O1537       O  0.65973607  0.81560188  0.39185495    -0.78400
O1538       O  0.60671532  0.84171717  0.38217148    -0.97100
O1539       O  0.56276962  0.74600998  0.37423569    -0.90400
O1540       O  0.61884873  0.71877113  0.38449068    -0.93200
C1541       C  0.79479432  0.97008576  0.37393853     1.00500
C1542       C  0.80802501  0.80490993  0.37544537     1.13500
C1543       C  0.66666131  0.85364825  0.35095694     1.04300
O1544       O  0.60041422  0.90737984  0.36655659    -0.95400
O1545       O  0.51678493  0.81052233  0.37348673    -0.91100
O1546       O  0.50167401  0.77155994  0.38546965    -0.84300
C1547       C  0.48967566  0.79083974  0.37969448     1.10900
O1548       O  0.64310121  0.67359791  0.36077783    -0.97300
Zr1549     Zr  0.60789449  0.70465688  0.37074829     1.88900
O1550       O  0.50458279  0.67538637  0.38618312    -0.74000
O1551       O  0.53030986  0.78378403  0.35852153    -0.53300
O1552       O  0.55874446  0.68014189  0.35857926    -0.97900
O1553       O  0.61570853  0.63293135  0.37507350    -0.55100
O1554       O  0.52315564  0.64566106  0.37520446    -0.74500
C1555       C  0.49371559  0.64145303  0.38090404     0.97800
O1556       O  0.54653814  0.78369983  0.40016045    -0.63300
O1557       O  0.76425627  0.82201752  0.39825164    -0.58100
O1558       O  0.58224281  0.71982623  0.39980563    -0.94800
O1559       O  0.66011319  0.72752599  0.39958189    -0.93200
O1560       O  0.75914080  0.93140019  0.39553442    -0.93600
O1561       O  0.66648735  0.91845162  0.39783040    -0.92400
C1562       C  0.61639287  0.71194081  0.40268113     1.16700
H1563       H  0.77430978  0.87715247  0.38316362     0.32600
H1564       H  0.58791458  0.85744449  0.38392407     0.43500
H1565       H  0.60573525  0.68685540  0.38717215     0.37000
H1566       H  0.63786194  0.77552885  0.35894446     0.33500
H1567       H  0.68935883  0.98742709  0.38638388     0.25300
H1568       H  0.53109315  0.81061639  0.35515762     0.31200
H1569       H  0.53518628  0.64350548  0.35912888     0.37100
H1570       H  0.77005399  0.96771382  0.39573956     0.31600
H1571       H  0.74546759  0.83266617  0.40176522     0.30500
H1572       H  0.74195184  0.71235187  0.39380096     0.32100
H1573       H  0.59068660  0.61653492  0.37936209     0.31100
H1574       H  0.62947731  0.89617269  0.39798799     0.35100
H1575       H  0.57641025  0.79834865  0.40366233     0.27800
H1576       H  0.79624734  0.88016045  0.35465114     0.32100
H1577       H  0.61657766  0.63846324  0.35966781     0.34900
H1578       H  0.76741193  0.79635612  0.40135528     0.27500
H1579       H  0.54291110  0.81293680  0.39866753     0.40400
H1580       H  0.56883832  0.89893109  0.36374886     0.30500
H1581       H  0.67261173  0.96667442  0.37779361     0.38100
H1582       H  0.64877254  0.64803395  0.37775657     0.29900
H1583       H  0.54161302  0.76546507  0.35503086     0.30000
H1584       H  0.76554661  0.82101647  0.35385291     0.30300
Zr1585     Zr  0.88372453  0.73496337  0.22122227     2.17500
O1586       O  0.86478918  0.76878333  0.23296010    -0.52100
O1587       O  0.96629543  0.80687264  0.21859638    -0.75300
O1588       O  0.92700460  0.72916280  0.23291152    -0.82100
O1589       O  0.81472877  0.77751661  0.20759675    -0.83800
O1590       O  0.92295354  0.65320551  0.23307013    -0.79500
O1591       O  0.86222874  0.79992422  0.21879985    -0.91100
O1592       O  0.99606282  0.78982205  0.20739187    -0.77100
O1593       O  0.92860545  0.69345168  0.21750537    -0.86600
O1594       O  0.89286558  0.74426937  0.20721213    -0.86200
O1595       O  0.83273284  0.64916793  0.22543450    -0.73000
O1596       O  0.80039408  0.69658215  0.21578628    -0.85100
Zr1597     Zr  0.80284582  0.57691997  0.20173105     2.26400
Zr1598     Zr  0.87668038  0.60700782  0.22124268     2.06300
Zr1599     Zr  0.81005465  0.70341328  0.20169900     2.10000
Zr1600     Zr  0.93828227  0.70314819  0.20360461     1.78800
O1601       O  0.72355825  0.68101843  0.19878627    -0.93900
O1602       O  0.01660024  0.70503695  0.20683226    -0.41700
O1603       O  0.85584608  0.66293916  0.19823153    -0.78400
O1604       O  0.88752529  0.61532728  0.20713279    -0.97100
O1605       O  0.79355240  0.56763227  0.21575497    -0.90400
O1606       O  0.75727643  0.61766005  0.20554541    -0.93200
C1607       C  0.99877134  0.81903197  0.21302989     1.00500
C1608       C  0.83599860  0.80652648  0.21352098     1.13500
C1609       C  0.93703347  0.69699601  0.23602969     1.04300
O1610       O  0.95359494  0.60327462  0.22270767    -0.95400
O1611       O  0.86050624  0.52490792  0.21646122    -0.91100
O1612       O  0.82477656  0.51286815  0.20432376    -0.84300
C1613       C  0.84252688  0.49934650  0.21006344     1.10900
O1614       O  0.73151090  0.63972158  0.23193491    -0.97300
Zr1615     Zr  0.75055821  0.61055649  0.21969317     1.88900
O1616       O  0.71265613  0.51473735  0.20336604    -0.74000
O1617       O  0.83431599  0.55116267  0.23239528    -0.53300
O1618       O  0.72838691  0.54875004  0.23026585    -0.97900
O1619       O  0.67975417  0.62508376  0.21823074    -0.55100
O1620       O  0.68369718  0.53387702  0.21440623    -0.74500
C1621       C  0.67787145  0.50598036  0.20844645     0.97800
O1622       O  0.78315636  0.51906659  0.19063086    -0.63300
O1623       O  0.83253110  0.77036870  0.19201632    -0.58100
O1624       O  0.81063090  0.60568193  0.18788122    -0.94800
O1625       O  0.81390246  0.68104776  0.18792617    -0.93200
O1626       O  0.95142260  0.74753807  0.19110168    -0.93600
O1627       O  0.96894264  0.67134277  0.19307475    -0.92400
C1628       C  0.81441890  0.64454791  0.18427327     1.16700
H1629       H  0.90974817  0.77913858  0.20558552     0.32600
H1630       H  0.90482876  0.59824006  0.20528279     0.43500
H1631       H  0.72499594  0.60326433  0.20295497     0.37000
H1632       H  0.82959224  0.64769466  0.23112974     0.33500
H1633       H  0.04303944  0.73486861  0.20399455     0.25300
H1634       H  0.80966059  0.51860593  0.22998353     0.31200
H1635       H  0.69268922  0.52307720  0.22935799     0.37100
H1636       H  0.98776708  0.77292769  0.19102952     0.31600
H1637       H  0.80594569  0.77957237  0.19240032     0.30500
H1638       H  0.71712723  0.70325012  0.20223892     0.32100
H1639       H  0.64977704  0.59315159  0.21988568     0.31100
H1640       H  0.93823348  0.64208276  0.19091344     0.35100
H1641       H  0.81502396  0.52007170  0.18927784     0.27800
H1642       H  0.89782739  0.79481885  0.23505539     0.32100
H1643       H  0.69664542  0.61385804  0.23335577     0.34900
H1644       H  0.86333011  0.79990198  0.19409737     0.27500
H1645       H  0.76112370  0.48481566  0.19279082     0.40400
H1646       H  0.96726358  0.60780794  0.21727230     0.30500
H1647       H  0.02256145  0.71453879  0.21249106     0.38100
H1648       H  0.67561942  0.62674079  0.21245177     0.29900
H1649       H  0.86016072  0.54483857  0.23475885     0.30000
H1650       H  0.85167398  0.74128748  0.23692366     0.30300
Zr1651     Zr  0.85534202  0.73313052  0.13347590     2.17500
O1652       O  0.85510410  0.78817637  0.14388099    -0.52100
O1653       O  0.94591746  0.79599871  0.13219124    -0.75300
O1654       O  0.86460956  0.70805649  0.14699206    -0.82100
O1655       O  0.79610377  0.78766546  0.11946667    -0.83800
O1656       O  0.85606052  0.63021473  0.14674670    -0.79500
O1657       O  0.83685116  0.80038158  0.13121290    -0.91100
O1658       O  0.97706874  0.77658272  0.12144956    -0.77100
O1659       O  0.89943099  0.69121780  0.12955970    -0.86600
O1660       O  0.86717662  0.74579432  0.11951528    -0.86200
O1661       O  0.79709880  0.64615453  0.13662970    -0.73000
O1662       O  0.77243604  0.69757912  0.12758695    -0.85100
Zr1663     Zr  0.77626995  0.58041884  0.11284414     2.26400
Zr1664     Zr  0.84257540  0.60464274  0.13287503     2.06300
Zr1665     Zr  0.78526854  0.70954582  0.11359237     2.10000
Zr1666     Zr  0.90973948  0.70270503  0.11551579     1.78800
O1667       O  0.70931699  0.71503003  0.11220371    -0.93900
O1668       O  0.97705551  0.68299858  0.11691866    -0.41700
O1669       O  0.82899211  0.66729258  0.10930605    -0.78400
O1670       O  0.85790120  0.61637666  0.11886877    -0.97100
O1671       O  0.76170839  0.56773432  0.12670895    -0.90400
O1672       O  0.73168351  0.62229986  0.11660362    -0.93200
C1673       C  0.98187033  0.80458800  0.12734532     1.00500
C1674       C  0.81570437  0.81305410  0.12584914     1.13500
C1675       C  0.86104759  0.66892611  0.15047828     1.04300
O1676       O  0.92482308  0.61581621  0.13613751    -0.95400
O1677       O  0.83791996  0.53052172  0.12697264    -0.91100
O1678       O  0.79403736  0.51245331  0.11540817    -0.84300
C1679       C  0.81867582  0.50377961  0.12074159     1.10900
O1680       O  0.68687882  0.63749248  0.14146752    -0.97300
Zr1681     Zr  0.71731444  0.60954125  0.13034137     1.88900
O1682       O  0.69319872  0.50833027  0.11489501    -0.74000
O1683       O  0.79751162  0.52927630  0.14101949    -0.53300
O1684       O  0.69241891  0.55275266  0.14167707    -0.97900
O1685       O  0.64610472  0.62037099  0.12692937    -0.55100
O1686       O  0.65762036  0.52668569  0.12520041    -0.74500
C1687       C  0.65695965  0.49727008  0.11974594     0.97800
O1688       O  0.80097131  0.55186184  0.10107329    -0.63300
O1689       O  0.83260425  0.77040924  0.10325602    -0.58100
O1690       O  0.73552615  0.58971263  0.10102083    -0.94800
O1691       O  0.74110608  0.66648198  0.10133874    -0.93200
O1692       O  0.93918979  0.76729337  0.10527550    -0.93600
O1693       O  0.93263396  0.67759350  0.10324322    -0.92400
C1694       C  0.72694834  0.62344781  0.09805393     1.16700
H1695       H  0.88694889  0.78124966  0.11826188     0.32600
H1696       H  0.87564862  0.59985076  0.11699499     0.43500
H1697       H  0.69986002  0.60852098  0.11386906     0.37000
H1698       H  0.78670533  0.64106424  0.14209170     0.33500
H1699       H  0.00775415  0.71352311  0.11503799     0.25300
H1700       H  0.82406925  0.52685468  0.14397651     0.31200
H1701       H  0.69166213  0.52205458  0.13968109     0.37100
H1702       H  0.97637151  0.78549341  0.10569687     0.31600
H1703       H  0.83620996  0.75030306  0.09899532     0.30500
H1704       H  0.71863905  0.74284732  0.10838795     0.32100
H1705       H  0.63363697  0.60323956  0.12178323     0.31100
H1706       H  0.90075277  0.65941180  0.10024074     0.35100
H1707       H  0.80752206  0.57726494  0.09692958     0.27800
H1708       H  0.88601024  0.79884438  0.14703368     0.32100
H1709       H  0.65166308  0.61040478  0.14236399     0.34900
H1710       H  0.80881818  0.78029315  0.10109464     0.27500
H1711       H  0.83484370  0.55717656  0.10230440     0.40400
H1712       H  0.91741025  0.58363965  0.13864900     0.30500
H1713       H  0.98194871  0.68247662  0.12270050     0.38100
H1714       H  0.66131235  0.65666264  0.12569496     0.29900
H1715       H  0.77974247  0.53786128  0.14507238     0.30000
H1716       H  0.82680710  0.76632144  0.14744178     0.30300
Zr1717     Zr  0.24576116  0.13600210  0.22078264     2.17500
O1718       O  0.21251340  0.08275721  0.23248918    -0.52100
O1719       O  0.17643384  0.15014490  0.21860965    -0.75300
O1720       O  0.25013219  0.18536055  0.23234235    -0.82100
O1721       O  0.19413003  0.02939662  0.20604254    -0.83800
O1722       O  0.32575830  0.25753329  0.23220792    -0.79500
O1723       O  0.17922364  0.05034999  0.21825673    -0.91100
O1724       O  0.19631175  0.20568563  0.20849217    -0.77100
O1725       O  0.28924845  0.22307727  0.21747128    -0.86600
O1726       O  0.23546370  0.13995762  0.20685951    -0.86200
O1727       O  0.33093980  0.16675572  0.22490131    -0.73000
O1728       O  0.27986219  0.08926138  0.21465057    -0.85100
Zr1729     Zr  0.40223103  0.21230327  0.20113235     2.26400
Zr1730     Zr  0.37487140  0.25369685  0.22107509     2.06300
Zr1731     Zr  0.27247303  0.09630725  0.20069515     2.10000
Zr1732     Zr  0.27951142  0.22725111  0.20366045     1.78800
O1733       O  0.28693524  0.02661791  0.19798790    -0.93900
O1734       O  0.29004543  0.30848192  0.20751813    -0.41700
O1735       O  0.31662478  0.18357137  0.19761382    -0.78400
O1736       O  0.36664670  0.25975483  0.20703047    -0.97100
O1737       O  0.41120173  0.20835458  0.21510061    -0.90400
O1738       O  0.35793815  0.12486426  0.20434147    -0.93200
C1739       C  0.16613827  0.17601297  0.21382535     1.00500
C1740       C  0.16828479  0.01990416  0.21241516     1.13500
C1741       C  0.28180534  0.22864037  0.23519295     1.04300
O1742       O  0.39074044  0.33836580  0.22362811    -0.95400
O1743       O  0.45613856  0.32082558  0.21629884    -0.91100
O1744       O  0.46780644  0.29731626  0.20409689    -0.84300
C1745       C  0.48129210  0.32843971  0.20985793     1.10900
O1746       O  0.32334206  0.05972397  0.22898254    -0.97300
Zr1747     Zr  0.36526527  0.12115642  0.21842368     1.88900
O1748       O  0.46471832  0.18429251  0.20259303    -0.74000
O1749       O  0.42479270  0.25693680  0.23248862    -0.53300
O1750       O  0.42086658  0.14742410  0.22988096    -0.97900
O1751       O  0.35724023  0.03968592  0.21536329    -0.55100
O1752       O  0.44570773  0.13798219  0.21380698    -0.74500
C1753       C  0.47402938  0.15958905  0.20785531     0.97800
O1754       O  0.45829578  0.25319905  0.18991262    -0.63300
O1755       O  0.20583213  0.05984916  0.19077490    -0.58100
O1756       O  0.37556793  0.19214811  0.18722608    -0.94800
O1757       O  0.29835726  0.12222175  0.18706778    -0.93200
O1758       O  0.22780536  0.20082870  0.19176341    -0.93600
O1759       O  0.31184897  0.28829628  0.19289619    -0.92400
C1760       C  0.33654743  0.15812814  0.18352924     1.16700
H1761       H  0.20043785  0.12393151  0.20537045     0.32600
H1762       H  0.38466040  0.29454506  0.20535790     0.43500
H1763       H  0.37151628  0.10702823  0.20149779     0.37000
H1764       H  0.33233002  0.16367523  0.23056411     0.33500
H1765       H  0.26433452  0.31165115  0.20443512     0.25300
H1766       H  0.45091160  0.25037902  0.23031195     0.31200
H1767       H  0.43821748  0.12759301  0.22958961     0.37100
H1768       H  0.19798925  0.16805508  0.19314174     0.31600
H1769       H  0.19271856  0.02307150  0.19092091     0.30500
H1770       H  0.28465613  0.02305083  0.19215898     0.32100
H1771       H  0.38533646  0.03956610  0.21822527     0.31100
H1772       H  0.34484077  0.29171861  0.19155574     0.35100
H1773       H  0.45726696  0.28449784  0.18892739     0.27800
H1774       H  0.18427861  0.08713020  0.23432270     0.32100
H1775       H  0.34880003  0.05204396  0.23111418     0.34900
H1776       H  0.17815292  0.06424651  0.19287894     0.27500
H1777       H  0.49277057  0.26478157  0.19187274     0.40400
H1778       H  0.37540295  0.34592166  0.21906138     0.30500
H1779       H  0.27777836  0.30371939  0.21304643     0.38100
H1780       H  0.36640351  0.04141850  0.20971183     0.29900
H1781       H  0.44336917  0.29294471  0.23399777     0.30000
H1782       H  0.23878541  0.09900158  0.23660142     0.30300
Zr1783     Zr  0.25572916  0.10407634  0.13256624     2.17500
O1784       O  0.20108909  0.04884567  0.14304085    -0.52100
O1785       O  0.19081595  0.12818703  0.13074887    -0.75300
O1786       O  0.27942484  0.14060690  0.14599550    -0.82100
O1787       O  0.20182691  0.98970072  0.11865189    -0.83800
O1788       O  0.35668954  0.21052883  0.14568363    -0.79500
O1789       O  0.18944175  0.01858975  0.13035198    -0.91100
O1790       O  0.20534595  0.16857050  0.11895888    -0.77100
O1791       O  0.29650848  0.18965519  0.12850501    -0.86600
O1792       O  0.24413003  0.10245263  0.11856992    -0.86200
O1793       O  0.34229679  0.13362511  0.13592211    -0.73000
O1794       O  0.29111502  0.05624319  0.12683020    -0.85100
Zr1795     Zr  0.40898197  0.17677915  0.11214471     2.26400
Zr1796     Zr  0.38270741  0.22019933  0.13189135     2.06300
Zr1797     Zr  0.28021923  0.05647722  0.11280310     2.10000
Zr1798     Zr  0.28682742  0.18802028  0.11443863     1.78800
O1799       O  0.27643687  0.97556720  0.11172530    -0.93900
O1800       O  0.29624237  0.26963608  0.11772893    -0.41700
O1801       O  0.32251920  0.14247670  0.10839881    -0.78400
O1802       O  0.37303282  0.22313305  0.11783658    -0.97100
O1803       O  0.41985492  0.17558859  0.12605511    -0.90400
O1804       O  0.36706826  0.09035322  0.11602354    -0.93200
C1805       C  0.17859177  0.14833366  0.12511310     1.00500
C1806       C  0.17666151  0.98469198  0.12502800     1.13500
C1807       C  0.31807598  0.17702253  0.14945153     1.04300
O1808       O  0.36627090  0.28947435  0.13354540    -0.95400
O1809       O  0.45847599  0.28866138  0.12635030    -0.91100
O1810       O  0.47778972  0.26236827  0.11495008    -0.84300
C1811       C  0.48651332  0.29559444  0.12031327     1.10900
O1812       O  0.34108296  0.02365206  0.13985296    -0.97300
Zr1813     Zr  0.37864611  0.08955330  0.12981916     1.88900
O1814       O  0.48089601  0.16679514  0.11449350    -0.74000
O1815       O  0.45607678  0.25632373  0.14053922    -0.53300
O1816       O  0.42794437  0.11520702  0.14197127    -0.97900
O1817       O  0.37946597  0.01350607  0.12584637    -0.55100
O1818       O  0.46548275  0.12147311  0.12583499    -0.74500
C1819       C  0.49391572  0.14742376  0.12006396     0.97800
O1820       O  0.43892405  0.22598662  0.09996830    -0.63300
O1821       O  0.21972569  0.04079658  0.10230386    -0.58100
O1822       O  0.40023098  0.12564657  0.10052876    -0.94800
O1823       O  0.32308896  0.05494263  0.10060838    -0.93200
O1824       O  0.23274115  0.15963295  0.10280851    -0.93600
O1825       O  0.31976906  0.24762785  0.10348460    -0.92400
C1826       C  0.36668723  0.08356954  0.09748047     1.16700
H1827       H  0.20878751  0.08610431  0.11727233     0.32600
H1828       H  0.39007577  0.25740192  0.11592736     0.43500
H1829       H  0.38110502  0.07229585  0.11337698     0.37000
H1830       H  0.34701927  0.12923777  0.14144098     0.33500
H1831       H  0.27078001  0.27202622  0.11445039     0.25300
H1832       H  0.45412738  0.28284861  0.14358083     0.31200
H1833       H  0.45568318  0.14986840  0.14090606     0.37100
H1834       H  0.20354827  0.12679197  0.10434500     0.31600
H1835       H  0.21476574  0.00980173  0.09967864     0.30500
H1836       H  0.24675940  0.95495466  0.10834387     0.32100
H1837       H  0.40458624  0.02393903  0.12153356     0.31100
H1838       H  0.34969404  0.24629792  0.10163313     0.35100
H1839       H  0.40955709  0.21100488  0.09636271     0.27800
H1840       H  0.18923363  0.06864497  0.14604159     0.32100
H1841       H  0.36772464  0.01597679  0.14134865     0.34900
H1842       H  0.18747379  0.03026524  0.10506192     0.27500
H1843       H  0.44341294  0.25945607  0.10125778     0.40400
H1844       H  0.38651822  0.30815013  0.13820809     0.30500
H1845       H  0.28329924  0.26584410  0.12320201     0.38100
H1846       H  0.34659478  0.99230417  0.12323076     0.29900
H1847       H  0.44950275  0.22972369  0.14446243     0.30000
H1848       H  0.22338081  0.04390040  0.14671489     0.30300
Zr1849     Zr  0.84590285  0.09700412  0.22109539     2.17500
O1850       O  0.89937278  0.11389553  0.23268316    -0.52100
O1851       O  0.83408461  0.01406723  0.21867419    -0.75300
O1852       O  0.79640888  0.05595720  0.23282095    -0.82100
O1853       O  0.95912199  0.16911044  0.20765349    -0.83800
O1854       O  0.72418550  0.05952667  0.23275235    -0.79500
O1855       O  0.93444598  0.12393565  0.21909454    -0.91100
O1856       O  0.77713857  0.97831952  0.20874101    -0.77100
O1857       O  0.75914330  0.05270616  0.21754166    -0.86600
O1858       O  0.84448414  0.08511449  0.20715326    -0.86200
O1859       O  0.81184217  0.14873455  0.22518957    -0.73000
O1860       O  0.89118947  0.17906469  0.21540013    -0.85100
Zr1861     Zr  0.77039295  0.17812707  0.20136031     2.26400
Zr1862     Zr  0.72553690  0.10582545  0.22091543     2.06300
Zr1863     Zr  0.88774797  0.16758814  0.20139944     2.10000
Zr1864     Zr  0.75741995  0.04077038  0.20371844     1.78800
O1865       O  0.95429714  0.25258488  0.19813161    -0.93900
O1866       O  0.67528463  0.97061376  0.20745757    -0.41700
O1867       O  0.80106086  0.12280012  0.19799395    -0.78400
O1868       O  0.72250171  0.09386371  0.20684460    -0.97100
O1869       O  0.77097929  0.18853838  0.21533684    -0.90400
O1870       O  0.85681987  0.22229691  0.20511167    -0.93200
C1871       C  0.80693737  0.97755213  0.21399232     1.00500
C1872       C  0.96772262  0.15086824  0.21388158     1.13500
C1873       C  0.75379179  0.04566686  0.23578786     1.04300
O1874       O  0.64430056  0.02889638  0.22195693    -0.95400
O1875       O  0.66056455  0.12313545  0.21610770    -0.91100
O1876       O  0.68508920  0.15937956  0.20400318    -0.84300
C1877       C  0.65345574  0.14156194  0.20971826     1.10900
O1878       O  0.91707290  0.25515090  0.23008913    -0.97300
Zr1879     Zr  0.85689971  0.23014826  0.21923390     1.88900
O1880       O  0.79964401  0.26860625  0.20293437    -0.74000
O1881       O  0.70835180  0.14716938  0.23178141    -0.53300
O1882       O  0.82331890  0.24969275  0.23091833    -0.97900
O1883       O  0.93865293  0.30431326  0.21655033    -0.55100
O1884       O  0.83772435  0.29236847  0.21487999    -0.74500
C1885       C  0.82047143  0.30081501  0.20856429     0.97800
O1886       O  0.73257135  0.19556263  0.18998016    -0.63300
O1887       O  0.92675382  0.13577247  0.19225116    -0.58100
O1888       O  0.79332409  0.17182112  0.18762108    -0.94800
O1889       O  0.86580484  0.16902975  0.18760636    -0.93200
O1890       O  0.78738422  0.01635929  0.19213698    -0.93600
O1891       O  0.70061015  0.00954712  0.19242773    -0.92400
C1892       C  0.82864623  0.16857482  0.18403063     1.16700
H1893       H  0.86123752  0.06682483  0.20567682     0.32600
H1894       H  0.68815836  0.07731793  0.20499874     0.43500
H1895       H  0.87517380  0.25446124  0.20248821     0.37000
H1896       H  0.81367690  0.15228030  0.23086977     0.33500
H1897       H  0.67172244  0.94160613  0.20436634     0.25300
H1898       H  0.67617123  0.12061055  0.23406315     0.31200
H1899       H  0.83674514  0.28649796  0.23067110     0.37100
H1900       H  0.82418058  0.03990446  0.19202512     0.31600
H1901       H  0.96265895  0.16236070  0.19200846     0.30500
H1902       H  0.94790784  0.25763328  0.19255789     0.32100
H1903       H  0.93321034  0.32144479  0.21201221     0.31100
H1904       H  0.67643589  0.02151567  0.19330282     0.35100
H1905       H  0.70045801  0.16403083  0.18897884     0.27800
H1906       H  0.89018959  0.08046109  0.23489369     0.32100
H1907       H  0.92294931  0.28841669  0.23186907     0.34900
H1908       H  0.92666623  0.10730761  0.19503113     0.27500
H1909       H  0.72240218  0.21967081  0.19186296     0.40400
H1910       H  0.63497015  0.01720281  0.21643593     0.30500
H1911       H  0.67937221  0.96265596  0.21299060     0.38100
H1912       H  0.95932167  0.29067002  0.21436236     0.29900
H1913       H  0.73389392  0.15296707  0.23585047     0.30000
H1914       H  0.88715566  0.12923018  0.23661433     0.30300
Zr1915     Zr  0.88624259  0.13569403  0.13277996     2.17500
O1916       O  0.94212088  0.13006312  0.14249316    -0.52100
O1917       O  0.85539118  0.04440059  0.13204064    -0.75300
O1918       O  0.85824769  0.13228766  0.14659795    -0.82100
O1919       O  0.99106211  0.18276499  0.11731092    -0.83800
O1920       O  0.78527194  0.13431734  0.14648045    -0.79500
O1921       O  0.96974901  0.15060352  0.12974484    -0.91100
O1922       O  0.80746835  0.01324454  0.12105055    -0.77100
O1923       O  0.79925434  0.09151800  0.12944974    -0.86600
O1924       O  0.88277873  0.12157569  0.11883603    -0.86200
O1925       O  0.85883076  0.19475054  0.13604301    -0.73000
O1926       O  0.93352981  0.21755483  0.12644007    -0.85100
Zr1927     Zr  0.80930151  0.21247991  0.11246342     2.26400
Zr1928     Zr  0.77097376  0.14924500  0.13278424     2.06300
Zr1929     Zr  0.92779855  0.20231202  0.11244237     2.10000
Zr1930     Zr  0.79617767  0.07875843  0.11544124     1.78800
O1931       O  0.01212942  0.27435530  0.11074121    -0.93900
O1932       O  0.71191769  0.00915000  0.11826712    -0.41700
O1933       O  0.84082596  0.15812042  0.10873089    -0.78400
O1934       O  0.76328925  0.13200115  0.11885010    -0.97100
O1935       O  0.81482952  0.22899853  0.12628670    -0.90400
O1936       O  0.89657943  0.25714733  0.11577685    -0.93200
C1937       C  0.82939252  0.00844587  0.12713595     1.00500
C1938       C  0.99883764  0.16470722  0.12368956     1.13500
C1939       C  0.82161287  0.13357389  0.15012802     1.04300
O1940       O  0.69837333  0.06587625  0.13490730    -0.95400
O1941       O  0.70466708  0.16326842  0.12780501    -0.91100
O1942       O  0.72524425  0.19753312  0.11546048    -0.84300
C1943       C  0.69542718  0.18017372  0.12144476     1.10900
O1944       O  0.96567487  0.30146241  0.13978915    -0.97300
Zr1945     Zr  0.90181878  0.27332241  0.12944760     1.88900
O1946       O  0.82094854  0.29543419  0.11435142    -0.74000
O1947       O  0.74186093  0.18897347  0.14224309    -0.53300
O1948       O  0.87555966  0.30012515  0.14120825    -0.97900
O1949       O  0.98021242  0.34691328  0.12520513    -0.55100
O1950       O  0.87318268  0.32995526  0.12486867    -0.74500
C1951       C  0.84437314  0.33058935  0.11940805     0.97800
O1952       O  0.75798345  0.18761305  0.10049677    -0.63300
O1953       O  0.93468371  0.15699250  0.10115127    -0.58100
O1954       O  0.85742035  0.25583335  0.10068722    -0.94800
O1955       O  0.92909949  0.25117366  0.10073771    -0.93200
O1956       O  0.82724233  0.04989627  0.10454686    -0.93600
O1957       O  0.74030529  0.05327897  0.10403579    -0.92400
C1958       C  0.90025716  0.26639807  0.09774247     1.16700
H1959       H  0.89746254  0.10106086  0.11751485     0.32600
H1960       H  0.72838825  0.11501972  0.11727825     0.43500
H1961       H  0.91445546  0.28910967  0.11306769     0.37000
H1962       H  0.86508324  0.20633975  0.14142957     0.33500
H1963       H  0.70940819  0.98027904  0.11526329     0.25300
H1964       H  0.71814642  0.16161906  0.14579409     0.31200
H1965       H  0.89441232  0.33739161  0.14098691     0.37100
H1966       H  0.80734670  0.01267142  0.10482292     0.31600
H1967       H  0.97041157  0.17684858  0.09951446     0.30500
H1968       H  0.02686787  0.26485674  0.10631842     0.32100
H1969       H  0.96998398  0.36712525  0.12195104     0.31100
H1970       H  0.73318035  0.08106155  0.10324141     0.35100
H1971       H  0.77277748  0.17216828  0.09707637     0.27800
H1972       H  0.92052816  0.10105307  0.14594405     0.32100
H1973       H  0.97684547  0.33743760  0.14069319     0.34900
H1974       H  0.93105104  0.12555102  0.10340148     0.27500
H1975       H  0.72493502  0.15891501  0.10208156     0.40400
H1976       H  0.67671803  0.06000607  0.13022779     0.30500
H1977       H  0.71310563  0.00046669  0.12387638     0.38100
H1978       H  0.99520864  0.33371150  0.12138716     0.29900
H1979       H  0.77140119  0.21074830  0.14557999     0.30000
H1980       H  0.95437710  0.16015349  0.14590476     0.30300
Zr1981     Zr  0.48061924  0.54270366  0.03318488     2.17500
O1982       O  0.47519505  0.59726197  0.02318415    -0.52100
O1983       O  0.39030113  0.51569633  0.03469317    -0.75300
O1984       O  0.47352935  0.51079792  0.01948392    -0.82100
O1985       O  0.54069675  0.65615192  0.04718759    -0.83800
O1986       O  0.47955765  0.44006645  0.01993571    -0.79500
O1987       O  0.50328781  0.62963066  0.03518029    -0.91100
O1988       O  0.36106840  0.46872375  0.04583672    -0.77100
O1989       O  0.43759430  0.45613730  0.03686759    -0.86600
O1990       O  0.46696970  0.54136892  0.04715123    -0.86200
O1991       O  0.54022796  0.51586439  0.03001587    -0.73000
O1992       O  0.56226596  0.59092545  0.03946977    -0.85100
Zr1993     Zr  0.55962534  0.46905597  0.05377863     2.26400
Zr1994     Zr  0.49593542  0.42839625  0.03361717     2.06300
Zr1995     Zr  0.54756136  0.58750790  0.05345059     2.10000
Zr1996     Zr  0.42572359  0.45509646  0.05090110     1.78800
O1997       O  0.61574886  0.67096790  0.05695587    -0.93900
O1998       O  0.35591915  0.37099592  0.04808384    -0.41700
O1999       O  0.50519515  0.50092135  0.05745872    -0.78400
O2000       O  0.47891583  0.42272828  0.04754851    -0.97100
O2001       O  0.57614811  0.47359819  0.03994840    -0.90400
O2002       O  0.60283687  0.55624804  0.05029099    -0.93200
C2003       C  0.35557630  0.49100856  0.03987443     1.00500
C2004       C  0.52351066  0.66293311  0.04062036     1.13500
C2005       C  0.47582671  0.47424366  0.01611212     1.04300
O2006       O  0.41643648  0.35402859  0.03018118    -0.95400
O2007       O  0.49947324  0.35777416  0.03933791    -0.91100
O2008       O  0.53977443  0.38230160  0.05121596    -0.84300
C2009       C  0.51666305  0.34945377  0.04573766     1.10900
O2010       O  0.64762123  0.62573549  0.02645088    -0.97300
Zr2011     Zr  0.61906859  0.56061205  0.03661769     1.88900
O2012       O  0.64177026  0.47885225  0.05143446    -0.74000
O2013       O  0.54499727  0.40449910  0.02518154    -0.53300
O2014       O  0.64885848  0.53769280  0.02483534    -0.97900
O2015       O  0.68926090  0.64071687  0.04109141    -0.55100
O2016       O  0.67787704  0.53523424  0.04139101    -0.74500
C2017       C  0.67800172  0.50493300  0.04662910     0.97800
O2018       O  0.53897283  0.42158649  0.06615371    -0.63300
O2019       O  0.49209202  0.59213493  0.06331290    -0.58100
O2020       O  0.60237167  0.51953664  0.06540792    -0.94800
O2021       O  0.59528224  0.58978598  0.06537566    -0.93200
O2022       O  0.39491060  0.48196627  0.06208147    -0.93600
O2023       O  0.40308610  0.39710650  0.06201626    -0.92400
C2024       C  0.61147829  0.56180523  0.06840198     1.16700
H2025       H  0.44662761  0.55637905  0.04839323     0.32600
H2026       H  0.46107445  0.38820547  0.04932392     0.43500
H2027       H  0.63459917  0.57457980  0.05301976     0.37000
H2028       H  0.55079435  0.52143224  0.02456739     0.33500
H2029       H  0.32586090  0.37065070  0.05029491     0.25300
H2030       H  0.52126939  0.38241767  0.02106441     0.31200
H2031       H  0.68583184  0.55421256  0.02549208     0.37100
H2032       H  0.35797492  0.45902633  0.06205613     0.31600
H2033       H  0.51499533  0.61419400  0.06751175     0.30500
H2034       H  0.60135223  0.68300072  0.06107861     0.32100
H2035       H  0.70509338  0.63224852  0.04546972     0.31100
H2036       H  0.43546665  0.40120715  0.06388986     0.35100
H2037       H  0.52352165  0.43656481  0.06953463     0.27800
H2038       H  0.44224394  0.57660484  0.02056098     0.32100
H2039       H  0.68359433  0.63691387  0.02553346     0.34900
H2040       H  0.47914530  0.61251684  0.06078460     0.27500
H2041       H  0.51061791  0.38762661  0.06490596     0.40400
H2042       H  0.42519109  0.33752272  0.02593581     0.30500
H2043       H  0.35133016  0.37033268  0.04227842     0.38100
H2044       H  0.67318120  0.65799192  0.04369596     0.29900
H2045       H  0.56868009  0.43578385  0.02233935     0.30000
H2046       H  0.50077235  0.60309185  0.01910936     0.30300
Zr2047     Zr  0.45956728  0.51474446  0.94483732     2.17500
O2048       O  0.48265839  0.56812188  0.93310660    -0.52100
O2049       O  0.37632677  0.50326574  0.94679570    -0.75300
O2050       O  0.41473955  0.46488916  0.93326956    -0.82100
O2051       O  0.52498598  0.62533191  0.95913633    -0.83800
O2052       O  0.42069686  0.39400905  0.93313192    -0.79500
O2053       O  0.48172160  0.60151257  0.94751613    -0.91100
O2054       O  0.34154294  0.44904663  0.95715066    -0.77100
O2055       O  0.41557173  0.42727885  0.94797332    -0.86600
O2056       O  0.44422249  0.51015989  0.95872498    -0.86200
O2057       O  0.51445482  0.48377462  0.94096724    -0.73000
O2058       O  0.53990638  0.55983213  0.95120864    -0.85100
Zr2059     Zr  0.53602885  0.43616750  0.96491262     2.26400
Zr2060     Zr  0.47094861  0.39648256  0.94464439     2.06300
Zr2061     Zr  0.52433060  0.55318846  0.96510348     2.10000
Zr2062     Zr  0.39972047  0.42253824  0.96172311     1.78800
O2063       O  0.60752803  0.61825458  0.96941674    -0.93900
O2064       O  0.32830641  0.34372827  0.95716086    -0.41700
O2065       O  0.47956009  0.46568498  0.96805950    -0.78400
O2066       O  0.45416641  0.38955688  0.95862674    -0.97100
O2067       O  0.55124216  0.44093801  0.95101332    -0.90400
O2068       O  0.58091114  0.52363169  0.96175056    -0.93200
C2069       C  0.34097786  0.47847922  0.95179994     1.00500
C2070       C  0.50617575  0.63397483  0.95296155     1.13500
C2071       C  0.40492901  0.42250110  0.93021781     1.04300
O2072       O  0.40448216  0.31039994  0.94218565    -0.95400
O2073       O  0.48504706  0.32963354  0.94960562    -0.91100
O2074       O  0.51537074  0.35051652  0.96213714    -0.84300
C2075       C  0.50023972  0.32076033  0.95618685     1.10900
O2076       O  0.61964961  0.59776250  0.93844526    -0.97300
Zr2077     Zr  0.59380561  0.52800020  0.94770602     1.88900
O2078       O  0.62505080  0.45958383  0.96328455    -0.74000
O2079       O  0.52206311  0.39451278  0.93377797    -0.53300
O2080       O  0.61755730  0.50414074  0.93537774    -0.97900
O2081       O  0.67080252  0.60516227  0.95132169    -0.55100
O2082       O  0.65242705  0.50221394  0.95171308    -0.74500
C2083       C  0.65765161  0.47956654  0.95767281     0.97800
O2084       O  0.55139396  0.39633017  0.97622993    -0.63300
O2085       O  0.48599170  0.58734362  0.97395551    -0.58100
O2086       O  0.52626709  0.45711573  0.97872330    -0.94800
O2087       O  0.52051455  0.52802457  0.97880695    -0.93200
O2088       O  0.37377099  0.44624659  0.97382941    -0.93600
O2089       O  0.36728992  0.35804493  0.97198417    -0.92400
C2090       C  0.52057735  0.49102616  0.98234731     1.16700
H2091       H  0.42555762  0.52652615  0.96020479     0.32600
H2092       H  0.43671476  0.35465434  0.96024511     0.43500
H2093       H  0.61196840  0.54070005  0.96468685     0.37000
H2094       H  0.51968653  0.48715175  0.93530935     0.33500
H2095       H  0.29853905  0.34278028  0.95961655     0.25300
H2096       H  0.54488941  0.38442816  0.93626601     0.31200
H2097       H  0.62450342  0.47696100  0.93684423     0.37100
H2098       H  0.33658926  0.42920431  0.97349883     0.31600
H2099       H  0.51181650  0.62319425  0.97468015     0.30500
H2100       H  0.62109158  0.64188054  0.96488929     0.32100
H2101       H  0.69769962  0.60450607  0.94817794     0.31100
H2102       H  0.39773873  0.36066919  0.97446655     0.35100
H2103       H  0.51975252  0.36415644  0.97710821     0.27800
H2104       H  0.45039613  0.56231295  0.93085366     0.32100
H2105       H  0.64902740  0.60059595  0.93555295     0.34900
H2106       H  0.45893554  0.58800893  0.97086053     0.27500
H2107       H  0.57601823  0.38655168  0.97441555     0.40400
H2108       H  0.38211153  0.30144881  0.94685810     0.30500
H2109       H  0.32515639  0.34892688  0.95145457     0.38100
H2110       H  0.67814633  0.60023569  0.95684533     0.29900
H2111       H  0.49852210  0.36492231  0.93059202     0.30000
H2112       H  0.49530594  0.55269033  0.92926646     0.30300
Zr2113     Zr  0.08264501  0.51972885  0.03390780     2.17500
O2114       O  0.13944751  0.51872092  0.02387940    -0.52100
O2115       O  0.14310061  0.61017045  0.03510968    -0.75300
O2116       O  0.06197992  0.53267708  0.02031519    -0.82100
O2117       O  0.13591015  0.46218693  0.04853601    -0.83800
O2118       O  0.98427291  0.52435326  0.02011040    -0.79500
O2119       O  0.15011104  0.50242138  0.03670133    -0.91100
O2120       O  0.12615749  0.63914264  0.04634675    -0.77100
O2121       O  0.04013623  0.56366254  0.03752425    -0.86600
O2122       O  0.09279391  0.53159809  0.04790612    -0.86200
O2123       O  0.99670907  0.46218798  0.03018906    -0.73000
O2124       O  0.04680892  0.43701123  0.03983697    -0.85100
Zr2125     Zr  0.92685644  0.43869841  0.05375841     2.26400
Zr2126     Zr  0.95463686  0.50751647  0.03380801     2.06300
Zr2127     Zr  0.05605147  0.44972446  0.05387617     2.10000
Zr2128     Zr  0.04822393  0.57329168  0.05157569     1.78800
O2129       O  0.06748193  0.37789083  0.05610170    -0.93900
O2130       O  0.03557497  0.64426537  0.04889093    -0.41700
O2131       O  0.01234502  0.49246695  0.05781219    -0.78400
O2132       O  0.96256122  0.52087105  0.04786004    -0.97100
O2133       O  0.91767737  0.42622928  0.03983064    -0.90400
O2134       O  0.97006456  0.39511486  0.05026979    -0.93200
C2135       C  0.15284650  0.64499990  0.04020555     1.00500
C2136       C  0.16224478  0.48179387  0.04222972     1.13500
C2137       C  0.02417504  0.53053311  0.01660899     1.04300
O2138       O  0.96852718  0.59206682  0.03169162    -0.95400
O2139       O  0.87649855  0.49640112  0.03917533    -0.91100
O2140       O  0.85669227  0.45134707  0.05066825    -0.84300
C2141       C  0.84792948  0.47480452  0.04516420     1.10900
O2142       O  0.99873174  0.35237918  0.02689218    -0.97300
Zr2143     Zr  0.95994313  0.38208225  0.03645747     1.88900
O2144       O  0.85552768  0.35603887  0.05133253    -0.74000
O2145       O  0.88213025  0.47075923  0.02498940    -0.53300
O2146       O  0.91376502  0.35854138  0.02400062    -0.97900
O2147       O  0.95877978  0.30588527  0.04092694    -0.55100
O2148       O  0.87168697  0.32791015  0.03989139    -0.74500
C2149       C  0.84258170  0.32468403  0.04559851     0.97800
O2150       O  0.89763312  0.46201057  0.06558900    -0.63300
O2151       O  0.11171832  0.49839309  0.06467731    -0.58100
O2152       O  0.93176831  0.39587121  0.06561602    -0.94800
O2153       O  0.00880237  0.40200876  0.06567684    -0.93200
O2154       O  0.10497951  0.59895744  0.06287229    -0.93600
O2155       O  0.01415404  0.59657426  0.06276685    -0.92400
C2156       C  0.96483676  0.38685495  0.06869544     1.16700
H2157       H  0.12797072  0.55155337  0.04930999     0.32600
H2158       H  0.94469248  0.53757708  0.04959387     0.43500
H2159       H  0.95586367  0.36302968  0.05294440     0.37000
H2160       H  0.99314168  0.45308695  0.02467863     0.33500
H2161       H  0.06271672  0.67284647  0.05184140     0.25300
H2162       H  0.88719129  0.49838344  0.02138647     0.31200
H2163       H  0.89308923  0.32133947  0.02417711     0.37100
H2164       H  0.12172094  0.63618163  0.06293102     0.31600
H2165       H  0.08887588  0.49514040  0.06906535     0.30500
H2166       H  0.09217800  0.38858772  0.06047702     0.32100
H2167       H  0.93060026  0.28977637  0.04475024     0.31100
H2168       H  0.98232011  0.56552574  0.06408412     0.35100
H2169       H  0.92660556  0.47589590  0.06927057     0.27800
H2170       H  0.15221001  0.55043357  0.02084177     0.32100
H2171       H  0.97269796  0.31740466  0.02557850     0.34900
H2172       H  0.12730613  0.47851882  0.06642582     0.27500
H2173       H  0.89485281  0.49165107  0.06403847     0.40400
H2174       H  0.93749269  0.58681884  0.02904270     0.30500
H2175       H  0.04490594  0.65271854  0.04325812     0.38100
H2176       H  0.98954693  0.31806914  0.04417690     0.29900
H2177       H  0.88677126  0.44700925  0.02162070     0.30000
H2178       H  0.11785018  0.49154313  0.02014469     0.30300
Zr2179     Zr  0.09149859  0.54293569  0.94501856     2.17500
O2180       O  0.12712952  0.51660247  0.93445347    -0.52100
O2181       O  0.15850960  0.62981411  0.94637054    -0.75300
O2182       O  0.08205413  0.57800981  0.93261883    -0.82100
O2183       O  0.14900454  0.49790540  0.96047264    -0.83800
O2184       O  0.00295765  0.56670782  0.93243738    -0.79500
O2185       O  0.16064121  0.52882384  0.94792037    -0.91100
O2186       O  0.13562493  0.66390570  0.95626294    -0.77100
O2187       O  0.04157424  0.58104256  0.94734593    -0.86600
O2188       O  0.10134114  0.56325559  0.95875557    -0.86200
O2189       O  0.00716376  0.48108961  0.94133630    -0.73000
O2190       O  0.06303058  0.46576447  0.95211140    -0.85100
Zr2191     Zr  0.93644904  0.46184941  0.96510134     2.26400
Zr2192     Zr  0.95691373  0.51868549  0.94425605     2.06300
Zr2193     Zr  0.07000784  0.48589321  0.96581766     2.10000
Zr2194     Zr  0.05183765  0.60205562  0.96092284     1.78800
O2195       O  0.06070061  0.40566629  0.97001204    -0.93900
O2196       O  0.04004375  0.66775142  0.95494189    -0.41700
O2197       O  0.02102169  0.52495825  0.96802009    -0.78400
O2198       O  0.96546019  0.54076881  0.95804583    -0.97100
O2199       O  0.92784289  0.44152028  0.95134887    -0.90400
O2200       O  0.98551209  0.42264837  0.96268665    -0.93200
C2201       C  0.16699748  0.66638959  0.95100616     1.00500
C2202       C  0.17365294  0.51245335  0.95393468     1.13500
C2203       C  0.04712820  0.58343219  0.92938771     1.04300
O2204       O  0.93132575  0.57850230  0.94010120    -0.95400
O2205       O  0.87385465  0.49895272  0.94915823    -0.91100
O2206       O  0.86625550  0.47441127  0.96197547    -0.84300
C2207       C  0.84937840  0.48461402  0.95572755     1.10900
O2208       O  0.02159368  0.38865596  0.93793770    -0.97300
Zr2209     Zr  0.97892703  0.40489580  0.94876272     1.88900
O2210       O  0.87758788  0.37035955  0.96384002    -0.74000
O2211       O  0.90470269  0.45938071  0.93405982    -0.53300
O2212       O  0.92024424  0.36274370  0.93792512    -0.97900
O2213       O  0.00272971  0.34368418  0.95303934    -0.55100
O2214       O  0.90120322  0.33789644  0.95377896    -0.74500
C2215       C  0.87080383  0.33385531  0.95925570     0.97800
O2216       O  0.87933633  0.44150875  0.97633598    -0.63300
O2217       O  0.13491685  0.52647798  0.97585463    -0.58100
O2218       O  0.96651049  0.47894482  0.97900512    -0.94800
O2219       O  0.04517222  0.49002678  0.97927946    -0.93200
O2220       O  0.09972978  0.63777707  0.97301414    -0.93600
O2221       O  0.01248364  0.63154714  0.97039221    -0.92400
C2222       C  0.00692241  0.48779074  0.98273250     1.16700
H2223       H  0.13615401  0.58480015  0.96021705     0.32600
H2224       H  0.94550222  0.55608318  0.95935228     0.43500
H2225       H  0.97407583  0.39282486  0.96589413     0.37000
H2226       H  0.00591282  0.47403075  0.93575254     0.33500
H2227       H  0.05874691  0.69742185  0.95841510     0.25300
H2228       H  0.88273264  0.47234626  0.93220820     0.31200
H2229       H  0.91106309  0.32692424  0.93831448     0.37100
H2230       H  0.11728665  0.67468010  0.97218255     0.31600
H2231       H  0.15139127  0.50587577  0.97620335     0.30500
H2232       H  0.07917871  0.39790284  0.96597034     0.32100
H2233       H  0.98316370  0.31388300  0.94963343     0.31100
H2234       H  0.99356557  0.60267478  0.97401991     0.35100
H2235       H  0.87601505  0.47163726  0.97719211     0.27800
H2236       H  0.15454980  0.54824627  0.93217428     0.32100
H2237       H  0.00090357  0.35236733  0.93668638     0.34900
H2238       H  0.16029870  0.55886093  0.97346977     0.27500
H2239       H  0.84582760  0.41532189  0.97441097     0.40400
H2240       H  0.94590473  0.60543441  0.94414196     0.30500
H2241       H  0.05997105  0.67700589  0.94998981     0.38100
H2242       H  0.98757915  0.33255190  0.95835377     0.29900
H2243       H  0.92783281  0.46564355  0.92956827     0.30000
H2244       H  0.10076264  0.50208492  0.93032793     0.30300
Zr2245     Zr  0.45370835  0.91481906  0.03378777     2.17500
O2246       O  0.39523699  0.85668016  0.02396506    -0.52100
O2247       O  0.48300651  0.85336329  0.03469991    -0.75300
O2248       O  0.48515335  0.93633922  0.02005670    -0.82100
O2249       O  0.34061687  0.86345214  0.04804397    -0.83800
O2250       O  0.55586437  0.01315146  0.02040017    -0.79500
O2251       O  0.36791513  0.84992014  0.03629701    -0.91100
O2252       O  0.53516297  0.87315506  0.04521558    -0.77100
O2253       O  0.54011807  0.95699771  0.03745071    -0.86600
O2254       O  0.45480852  0.90210938  0.04775091    -0.86200
O2255       O  0.48178029  0.00134381  0.03043615    -0.73000
O2256       O  0.40641987  0.94921282  0.04006042    -0.85100
Zr2257     Zr  0.52827909  0.06760074  0.05418618     2.26400
Zr2258     Zr  0.56898664  0.04303568  0.03406529     2.06300
Zr2259     Zr  0.41016026  0.93827877  0.05405136     2.10000
Zr2260     Zr  0.54102834  0.94618853  0.05146739     1.78800
O2261       O  0.32626699  0.91994121  0.05793709    -0.93900
O2262       O  0.62862341  0.96791013  0.04999539    -0.41700
O2263       O  0.49660538  0.98158419  0.05801049    -0.78400
O2264       O  0.57456914  0.03268009  0.04804616    -0.97100
O2265       O  0.52440340  0.07893342  0.04030953    -0.90400
O2266       O  0.44127762  0.02450863  0.05069268    -0.93200
C2267       C  0.51152808  0.84516452  0.03932048     1.00500
C2268       C  0.33431327  0.83824657  0.04165339     1.13500
C2269       C  0.52197885  0.97465205  0.01662645     1.04300
O2270       O  0.64072057  0.03097084  0.03199283    -0.95400
O2271       O  0.63448636  0.12309964  0.03925980    -0.91100
O2272       O  0.61321691  0.13682129  0.05153223    -0.84300
C2273       C  0.64361984  0.14916946  0.04562409     1.10900
O2274       O  0.37625290  0.99944697  0.02632196    -0.97300
Zr2275     Zr  0.43760502  0.03624032  0.03698907     1.88900
O2276       O  0.51745991  0.13949504  0.05203194    -0.74000
O2277       O  0.60290299  0.11334672  0.02476720    -0.53300
O2278       O  0.46053502  0.09081915  0.02542610    -0.97900
O2279       O  0.35699675  0.02640217  0.04113376    -0.55100
O2280       O  0.46249004  0.12027814  0.04186542    -0.74500
C2281       C  0.49227398  0.15042761  0.04718637     0.97800
O2282       O  0.57797601  0.09349403  0.06631307    -0.63300
O2283       O  0.40632243  0.88026430  0.06422898    -0.58100
O2284       O  0.47758615  0.06172630  0.06568952    -0.94800
O2285       O  0.40719221  0.98466158  0.06572012    -0.93200
O2286       O  0.50513976  0.87948416  0.06137580    -0.93600
O2287       O  0.58847081  0.96967102  0.06379271    -0.92400
C2288       C  0.43505487  0.02898175  0.06866775     1.16700
H2289       H  0.43943856  0.86665742  0.04898448     0.32600
H2290       H  0.60927363  0.05053009  0.04973215     0.43500
H2291       H  0.42302069  0.03824654  0.05334903     0.37000
H2292       H  0.47653967  0.00594547  0.02494656     0.33500
H2293       H  0.62998939  0.93869686  0.05219660     0.25300
H2294       H  0.62681410  0.10890756  0.02139790     0.31200
H2295       H  0.49778967  0.10891903  0.02533608     0.37100
H2296       H  0.52487595  0.86209628  0.06094750     0.31600
H2297       H  0.43025057  0.90217509  0.06834024     0.30500
H2298       H  0.32429447  0.94986279  0.05628316     0.32100
H2299       H  0.36478791  0.05039301  0.04554478     0.31100
H2300       H  0.60466572  0.00680511  0.06400845     0.35100
H2301       H  0.55737607  0.06801803  0.07035125     0.27800
H2302       H  0.41382771  0.84284682  0.02111983     0.32100
H2303       H  0.36096249  0.02107439  0.02578712     0.34900
H2304       H  0.37273130  0.86725834  0.06667627     0.27500
H2305       H  0.60563334  0.08657496  0.06525130     0.40400
H2306       H  0.66569023  0.05269261  0.03600207     0.30500
H2307       H  0.63321997  0.96616567  0.04423010     0.38100
H2308       H  0.33895054  0.99270727  0.04363481     0.29900
H2309       H  0.57458924  0.10668681  0.02122008     0.30000
H2310       H  0.39015916  0.87768711  0.02003378     0.30300
Zr2311     Zr  0.49168155  0.91208529  0.94505325     2.17500
O2312       O  0.44233464  0.87860636  0.93299693    -0.52100
O2313       O  0.50639600  0.84285681  0.94740190    -0.75300
O2314       O  0.54541504  0.92073019  0.93383171    -0.82100
O2315       O  0.37892873  0.86300594  0.95866019    -0.83800
O2316       O  0.61241720  0.00045624  0.93357166    -0.79500
O2317       O  0.40381622  0.84702266  0.94688530    -0.91100
O2318       O  0.56339533  0.86607765  0.95734869    -0.77100
O2319       O  0.57856626  0.95962683  0.94841799    -0.86600
O2320       O  0.49525099  0.90130984  0.95898585    -0.86200
O2321       O  0.51947198  0.99732291  0.94111538    -0.73000
O2322       O  0.44270215  0.94345927  0.95120192    -0.85100
Zr2323     Zr  0.56051376  0.06738539  0.96502560     2.26400
Zr2324     Zr  0.60588473  0.04527377  0.94510628     2.06300
Zr2325     Zr  0.44831489  0.93489587  0.96513933     2.10000
Zr2326     Zr  0.58244316  0.94870963  0.96217764     1.78800
O2327       O  0.37970743  0.94764933  0.96940162    -0.93900
O2328       O  0.66466455  0.96498194  0.95762064    -0.41700
O2329       O  0.53528094  0.98202786  0.96827043    -0.78400
O2330       O  0.61126005  0.03562237  0.95911661    -0.97100
O2331       O  0.55694023  0.07739922  0.95108810    -0.90400
O2332       O  0.47351977  0.01992179  0.96159889    -0.93200
C2333       C  0.53423709  0.83463768  0.95211351     1.00500
C2334       C  0.37050437  0.83739367  0.95226423     1.13500
C2335       C  0.58686480  0.95538556  0.93080771     1.04300
O2336       O  0.69202564  0.06651424  0.94224254    -0.95400
O2337       O  0.67221869  0.12477834  0.95051352    -0.91100
O2338       O  0.64577127  0.13610300  0.96248806    -0.84300
C2339       C  0.67846882  0.14981941  0.95692206     1.10900
O2340       O  0.41629841  0.98757135  0.93610461    -0.97300
Zr2341     Zr  0.47041599  0.02809653  0.94750988     1.88900
O2342       O  0.52784895  0.12584940  0.96331739    -0.74000
O2343       O  0.60678368  0.10061834  0.93469393    -0.53300
O2344       O  0.49892590  0.08875815  0.93667643    -0.97900
O2345       O  0.38344489  0.00625639  0.94990792    -0.55100
O2346       O  0.47658813  0.10378169  0.95261503    -0.74500
C2347       C  0.49970788  0.13286485  0.95841403     0.97800
O2348       O  0.59608256  0.12560318  0.97610718    -0.63300
O2349       O  0.41380065  0.86127465  0.97378212    -0.58100
O2350       O  0.54062758  0.03736212  0.97887744    -0.94800
O2351       O  0.47308714  0.95824690  0.97890245    -0.93200
O2352       O  0.56152188  0.89592591  0.97392940    -0.93600
O2353       O  0.64269395  0.98415543  0.97299245    -0.92400
C2354       C  0.50814238  0.99686570  0.98250178     1.16700
H2355       H  0.48052949  0.86635387  0.96047146     0.32600
H2356       H  0.64574375  0.05438036  0.96090374     0.43500
H2357       H  0.45397488  0.03172244  0.96439537     0.37000
H2358       H  0.51691144  0.99914782  0.93544772     0.33500
H2359       H  0.67449404  0.94673722  0.96139654     0.25300
H2360       H  0.61793931  0.13325549  0.93735944     0.31200
H2361       H  0.47667766  0.10349501  0.93683906     0.37100
H2362       H  0.58189764  0.87921784  0.97347582     0.31600
H2363       H  0.37755554  0.85015275  0.97428126     0.30500
H2364       H  0.35561577  0.93521702  0.96493569     0.32100
H2365       H  0.37804055  0.02935354  0.94649395     0.31100
H2366       H  0.63668620  0.01033712  0.97530278     0.35100
H2367       H  0.62941795  0.12910107  0.97720228     0.27800
H2368       H  0.45162639  0.85426789  0.93088000     0.32100
H2369       H  0.40875318  0.01273590  0.93380079     0.34900
H2370       H  0.41476593  0.83445427  0.97066728     0.27500
H2371       H  0.60348066  0.15888291  0.97408328     0.40400
H2372       H  0.69692308  0.04197177  0.94536182     0.30500
H2373       H  0.65787700  0.94588172  0.95261886     0.38100
H2374       H  0.38309225  0.01770201  0.95536795     0.29900
H2375       H  0.63552614  0.10672286  0.93127701     0.30000
H2376       H  0.45665684  0.90696516  0.92918502     0.30300
C2377       C  0.53828864  0.02679828  0.00452310    -0.09900
C2378       C  0.52209918  0.97882752  0.00779436     0.06300
C2379       C  0.50194486  0.93713042  0.00261395    -0.03700
C2380       C  0.49808945  0.94413750  0.99446661    -0.08100
C2381       C  0.51318184  0.99212075  0.99123884     0.05400
C2382       C  0.53343408  0.03368684  0.99644042    -0.03200
Br2383     Br  0.55028988  0.10021763  0.99320029    -0.02900
H2384       H  0.55259180  0.05934020  0.00835769     0.09300
H2385       H  0.48321432  0.91158967  0.99061718     0.07300
Br2386     Br  0.48058328  0.87002369  0.00619130    -0.03300
C2387       C  0.77880124  0.28455295  0.96195909    -0.09900
C2388       C  0.82307458  0.28470912  0.95981224     0.06300
C2389       C  0.81909516  0.23909131  0.95710096    -0.03700
C2390       C  0.77177380  0.19585182  0.95628821    -0.08100
C2391       C  0.72755844  0.19642913  0.95812107     0.05400
C2392       C  0.73150560  0.24124936  0.96109292    -0.03200
Br2393     Br  0.67385778  0.24765770  0.96326048    -0.02900
H2394       H  0.78062257  0.31910796  0.96388276     0.09300
H2395       H  0.76949647  0.16143602  0.95417076     0.07300
Br2396     Br  0.87618896  0.23224960  0.95440329    -0.03300
C2397       C  0.27877310  0.79780523  0.95486702    -0.09900
C2398       C  0.31820120  0.79498066  0.95111763     0.06300
C2399       C  0.30636318  0.75138125  0.94670189    -0.03700
C2400       C  0.25663513  0.71124761  0.94646933    -0.08100
C2401       C  0.21750522  0.71298987  0.95057201     0.05400
C2402       C  0.22911753  0.75792154  0.95462716    -0.03200
Br2403     Br  0.18014497  0.76900188  0.95997092    -0.02900
H2404       H  0.28662438  0.83143883  0.95810372     0.09300
H2405       H  0.24911840  0.67757076  0.94328492     0.07300
Br2406     Br  0.35619741  0.74186565  0.94135613    -0.03300
C2407       C  0.77014640  0.25605605  0.05273489    -0.09900
C2408       C  0.79062265  0.28182263  0.04562483     0.06300
C2409       C  0.76091654  0.26628507  0.03872463    -0.03700
C2410       C  0.71275487  0.22389224  0.03895506    -0.08100
C2411       C  0.69287046  0.19650467  0.04599457     0.05400
C2412       C  0.72188991  0.21370042  0.05298524    -0.03200
Br2413     Br  0.70046008  0.17957172  0.06294382    -0.02900
H2414       H  0.79249147  0.26802716  0.05809474     0.09300
H2415       H  0.69064828  0.21221927  0.03357134     0.07300
Br2416     Br  0.78268060  0.30308450  0.02895085    -0.03300
C2417       C  0.19615025  0.73735537  0.04234274    -0.09900
C2418       C  0.19784226  0.69565020  0.03922448     0.06300
C2419       C  0.24371589  0.70319199  0.03608451    -0.03700
C2420       C  0.28718191  0.75037400  0.03676634    -0.08100
C2421       C  0.28608843  0.79099356  0.04041411     0.05400
C2422       C  0.23945531  0.78474781  0.04287289    -0.03200
Br2423     Br  0.23181016  0.83960694  0.04660496    -0.02900
H2424       H  0.16089535  0.73291695  0.04450495     0.09300
H2425       H  0.32253607  0.75477789  0.03467106     0.07300
Br2426     Br  0.25106214  0.65061050  0.03128510    -0.03300
C2427       C  0.05092576  0.50635314  0.00428439    -0.09900
C2428       C  0.02375614  0.52706180  0.00775982     0.06300
C2429       C  0.99174412  0.53601629  0.00282383    -0.03700
C2430       C  0.98601046  0.52218360  0.99477446    -0.08100
C2431       C  0.01182229  0.49954110  0.99140369     0.05400
C2432       C  0.04513941  0.49233573  0.99631313    -0.03200
Br2433     Br  0.08162256  0.45993080  0.99285511    -0.02900
H2434       H  0.07520327  0.49831613  0.00789169     0.09300
H2435       H  0.96168474  0.52986582  0.99110668     0.07300
Br2436     Br  0.95648367  0.56886676  0.00659024    -0.03300
C2437       C  0.72265276  0.47138572  0.95025740    -0.09900
C2438       C  0.70419297  0.47587702  0.95764561     0.06300
C2439       C  0.73207492  0.47936863  0.96448029    -0.03700
C2440       C  0.77898035  0.48196481  0.96373091    -0.08100
C2441       C  0.79862917  0.48002371  0.95625617     0.05400
C2442       C  0.76860249  0.47272332  0.94950399    -0.03200
Br2443     Br  0.78564673  0.46132696  0.93906748    -0.02900
H2444       H  0.70088868  0.46659977  0.94495064     0.09300
H2445       H  0.80051250  0.48632509  0.96904412     0.07300
Br2446     Br  0.70939315  0.48286287  0.97491715    -0.03300
C2447       C  0.29217715  0.50936543  0.95885207    -0.09900
C2448       C  0.29880289  0.48800910  0.95197268     0.06300
C2449       C  0.26659536  0.47832694  0.94548403    -0.03700
C2450       C  0.22648618  0.48763997  0.94614863    -0.08100
C2451       C  0.21890609  0.50770109  0.95315941     0.05400
C2452       C  0.25331616  0.52017401  0.95943570    -0.03200
Br2453     Br  0.25212495  0.55586872  0.96865179    -0.02900
H2454       H  0.31824589  0.51882838  0.96374108     0.09300
H2455       H  0.20053365  0.47814539  0.94124702     0.07300
Br2456     Br  0.27477194  0.45057626  0.93580149    -0.03300
C2457       C  0.45537019  0.22743949  0.95548850    -0.09900
C2458       C  0.49962825  0.27265795  0.95712694     0.06300
C2459       C  0.54194667  0.27102777  0.95999447    -0.03700
C2460       C  0.53969520  0.22465766  0.96098480    -0.08100
C2461       C  0.49626339  0.17934656  0.95901090     0.05400
C2462       C  0.45318250  0.18106351  0.95646278    -0.03200
Br2463     Br  0.38948826  0.12167443  0.95455799    -0.02900
H2464       H  0.42213596  0.22817945  0.95352275     0.09300
H2465       H  0.57293602  0.22418731  0.96291521     0.07300
Br2466     Br  0.60532191  0.33104915  0.96189532    -0.03300
C2467       C  0.56102378  0.72666562  0.95409578    -0.09900
C2468       C  0.51388549  0.68526055  0.95214058     0.06300
C2469       C  0.47468347  0.69371553  0.94981335    -0.03700
C2470       C  0.48286487  0.74277927  0.94963008    -0.08100
C2471       C  0.52963400  0.78425265  0.95175563     0.05400
C2472       C  0.56936500  0.77585891  0.95384471    -0.03200
Br2473     Br  0.63634187  0.82968898  0.95603618    -0.02900
H2474       H  0.59170076  0.72071012  0.95579345     0.09300
H2475       H  0.45171630  0.74826916  0.94809363     0.07300
Br2476     Br  0.40791573  0.63968541  0.94752994    -0.03300
C2477       C  0.81174696  0.52998731  0.04592293    -0.09900
C2478       C  0.80378742  0.48089806  0.04596814     0.06300
C2479       C  0.75454995  0.43974316  0.04661508    -0.03700
C2480       C  0.71399797  0.44842710  0.04712495    -0.08100
C2481       C  0.72192699  0.49772928  0.04688710     0.05400
C2482       C  0.77145907  0.53872808  0.04639336    -0.03200
Br2483     Br  0.78691435  0.60748405  0.04664765    -0.02900
H2484       H  0.84971245  0.56182368  0.04553208     0.09300
H2485       H  0.67603465  0.41652335  0.04739168     0.07300
Br2486     Br  0.74064492  0.37146891  0.04611966    -0.03300
C2487       C  0.25133292  0.52356663  0.03746263    -0.09900
C2488       C  0.21062627  0.48202465  0.04120248     0.06300
C2489       C  0.21734360  0.44197518  0.04373673    -0.03700
C2490       C  0.26391607  0.44481746  0.04273349    -0.08100
C2491       C  0.30537571  0.48732441  0.03933025     0.05400
C2492       C  0.29837508  0.52679665  0.03657722    -0.03200
Br2493     Br  0.35206544  0.58779741  0.03219514    -0.02900
H2494       H  0.24706918  0.55466953  0.03544263     0.09300
H2495       H  0.26799702  0.41363237  0.04481760     0.07300
Br2496     Br  0.16460729  0.38132316  0.04836729    -0.03300
C2497       C  0.54907781  0.29243361  0.04926455    -0.09900
C2498       C  0.50866570  0.29824659  0.04684874     0.06300
C2499       C  0.46183964  0.25496911  0.04521601    -0.03700
C2500       C  0.45708429  0.20727169  0.04559182    -0.08100
C2501       C  0.49818752  0.20138559  0.04763803     0.05400
C2502       C  0.54441113  0.24472415  0.04966637    -0.03200
Br2503     Br  0.60411186  0.24284910  0.05244085    -0.02900
H2504       H  0.58514012  0.32540679  0.05055459     0.09300
H2505       H  0.42099363  0.17454262  0.04422720     0.07300
Br2506     Br  0.40249150  0.25828614  0.04273278    -0.03300
C2507       C  0.56062518  0.80135735  0.04136528    -0.09900
C2508       C  0.51757835  0.80017836  0.03815606     0.06300
C2509       C  0.47995812  0.75454570  0.03478663    -0.03700
C2510       C  0.48386671  0.71100385  0.03539515    -0.08100
C2511       C  0.52470995  0.71146284  0.03926281     0.05400
C2512       C  0.56464019  0.75793538  0.04186278    -0.03200
Br2513     Br  0.62667454  0.76505310  0.04571258    -0.02900
H2514       H  0.59124060  0.83627560  0.04366176     0.09300
H2515       H  0.45370520  0.67603036  0.03307126     0.07300
Br2516     Br  0.42074039  0.74746881  0.02972239    -0.03300
C2517       C  0.51519905  0.45927505  0.00433052    -0.09900
C2518       C  0.48237092  0.47497622  0.00733614     0.06300
C2519       C  0.46211440  0.49548221  0.00198756    -0.03700
C2520       C  0.47514749  0.50018941  0.99393349    -0.08100
C2521       C  0.50880333  0.48537705  0.99098290     0.05400
C2522       C  0.52885351  0.46473358  0.99632298    -0.03200
Br2523     Br  0.57891233  0.44796791  0.99328754    -0.02900
H2524       H  0.53253557  0.44473886  0.00831522     0.09300
H2525       H  0.45846851  0.51534219  0.98992964     0.07300
Br2526     Br  0.41521481  0.51606242  0.00520913    -0.03300
C2527       C  0.91920268  0.36288919  0.08166550    -0.09900
C2528       C  0.95057191  0.35694952  0.07622834     0.06300
C2529       C  0.96617305  0.32183438  0.07809060    -0.03700
C2530       C  0.94952246  0.29314177  0.08507432    -0.08100
C2531       C  0.91767008  0.29861881  0.09045590     0.05400
C2532       C  0.90357058  0.33515017  0.08874363    -0.03200
Br2533     Br  0.86659142  0.35255680  0.09603554    -0.02900
H2534       H  0.90756509  0.39029012  0.08048996     0.09300
H2535       H  0.96113014  0.26572535  0.08624492     0.07300
Br2536     Br  0.00799987  0.30872179  0.07123824    -0.03300
C2537       C  0.77941052  0.11790799  0.16333858    -0.09900
C2538       C  0.82402619  0.14073149  0.15886262     0.06300
C2539       C  0.86930582  0.17564207  0.16267481    -0.03700
C2540       C  0.86981401  0.18416083  0.17082395    -0.08100
C2541       C  0.82540222  0.16077800  0.17532019     0.05400
C2542       C  0.77963384  0.12778417  0.17145473    -0.03200
Br2543     Br  0.71635428  0.09328319  0.17692927    -0.02900
H2544       H  0.74400835  0.09239759  0.16049153     0.09300
H2545       H  0.90507768  0.21048117  0.17363527     0.07300
Br2546     Br  0.93050051  0.21800953  0.15700663    -0.03300
C2547       C  0.06762891  0.16340047  0.13147582    -0.09900
C2548       C  0.04384798  0.15863873  0.12412607     0.06300
C2549       C  0.06237502  0.14584799  0.11740872    -0.03700
C2550       C  0.10488865  0.14078266  0.11804788    -0.08100
C2551       C  0.13006275  0.14777699  0.12528626     0.05400
C2552       C  0.11045096  0.15818173  0.13209875    -0.03200
Br2553     Br  0.14239807  0.16908364  0.14222898    -0.02900
H2554       H  0.05357561  0.17239937  0.13674036     0.09300
H2555       H  0.11870647  0.13154167  0.11277423     0.07300
Br2556     Br  0.03052945  0.13194420  0.10722429    -0.03300
C2557       C  0.61897047  0.16181565  0.11372814    -0.09900
C2558       C  0.64590534  0.17711468  0.12088083     0.06300
C2559       C  0.62341237  0.18593734  0.12750578    -0.03700
C2560       C  0.57364349  0.17519176  0.12710756    -0.08100
C2561       C  0.54607909  0.15777843  0.12008628     0.05400
C2562       C  0.56953742  0.15273142  0.11326040    -0.03200
Br2563     Br  0.53488468  0.13093655  0.10331832    -0.02900
H2564       H  0.63584582  0.15546818  0.10854836     0.09300
H2565       H  0.55667904  0.18163377  0.13227294     0.07300
Br2566     Br  0.65955422  0.21642156  0.13705095    -0.03300
C2567       C  0.41964739  0.10556471  0.08528996    -0.09900
C2568       C  0.38058254  0.06804174  0.08988413     0.06300
C2569       C  0.35801269  0.01760629  0.08717026    -0.03700
C2570       C  0.37641600  0.00598889  0.08033533    -0.08100
C2571       C  0.41654420  0.04353094  0.07587732     0.05400
C2572       C  0.43708689  0.09425604  0.07836538    -0.03200
Br2573     Br  0.48703216  0.15141289  0.07251068    -0.02900
H2574       H  0.43672755  0.14469084  0.08703877     0.09300
H2575       H  0.35914414  0.96695449  0.07852959     0.07300
Br2576     Br  0.30281736  0.96196592  0.09246904    -0.03300
C2577       C  0.36110290  0.21003221  0.17108698    -0.09900
C2578       C  0.33332860  0.16260907  0.17475734     0.06300
C2579       C  0.30028631  0.12118254  0.17000828    -0.03700
C2580       C  0.29364393  0.12816855  0.16201169    -0.08100
C2581       C  0.32117070  0.17539959  0.15829324     0.05400
C2582       C  0.35606349  0.21664541  0.16296403    -0.03200
Br2583     Br  0.39813429  0.28322518  0.15879107    -0.02900
H2584       H  0.38682743  0.24248131  0.17456319     0.09300
H2585       H  0.26858131  0.09528789  0.15857335     0.07300
Br2586     Br  0.26678909  0.05275582  0.17372807    -0.03300
C2587       C  0.60766259  0.18339579  0.20438613    -0.09900
C2588       C  0.60638743  0.14377274  0.20880781     0.06300
C2589       C  0.56031619  0.10772911  0.21220669    -0.03700
C2590       C  0.51781824  0.11276789  0.21137536    -0.08100
C2591       C  0.51946945  0.15383783  0.20733607     0.05400
C2592       C  0.56515501  0.18902582  0.20368320    -0.03200
Br2593     Br  0.57377651  0.24734480  0.19814283    -0.02900
H2594       H  0.64253016  0.21131656  0.20166174     0.09300
H2595       H  0.48309162  0.08434660  0.21408576     0.07300
Br2596     Br  0.55155735  0.04970933  0.21789528    -0.03300
C2597       C  0.02554004  0.11922546  0.21678150    -0.09900
C2598       C  0.01922691  0.16004749  0.21484953     0.06300
C2599       C  0.06182124  0.20691031  0.21293943    -0.03700
C2600       C  0.10950158  0.21164900  0.21278598    -0.08100
C2601       C  0.11561520  0.17021969  0.21442499     0.05400
C2602       C  0.07290334  0.12349668  0.21642208    -0.03200
Br2603     Br  0.07481659  0.06222401  0.21771636    -0.02900
H2604       H  0.99294443  0.08280317  0.21805663     0.09300
H2605       H  0.14188523  0.24777776  0.21130339     0.07300
Br2606     Br  0.05749609  0.26587669  0.21056030    -0.03300
C2607       C  0.85824835  0.90237977  0.13055668    -0.09900
C2608       C  0.81587275  0.86132043  0.12708157     0.06300
C2609       C  0.77535579  0.86788206  0.12481872    -0.03700
C2610       C  0.77969170  0.91545458  0.12537294    -0.08100
C2611       C  0.82381470  0.95762215  0.12823572     0.05400
C2612       C  0.86277907  0.95017482  0.13111961    -0.03200
Br2613     Br  0.92467393  0.00398846  0.13528517    -0.02900
H2614       H  0.88891400  0.89770896  0.13261080     0.09300
H2615       H  0.74845691  0.91970069  0.12338273     0.07300
Br2616     Br  0.71211072  0.81302488  0.12134274    -0.03300
C2617       C  0.87872480  0.42219325  0.12089021    -0.09900
C2618       C  0.83764368  0.37488983  0.11901543     0.06300
C2619       C  0.79087956  0.37100230  0.11713281    -0.03700
C2620       C  0.78575390  0.41376437  0.11746328    -0.08100
C2621       C  0.82642012  0.46054130  0.11965716     0.05400
C2622       C  0.87366343  0.46485838  0.12113629    -0.03200
Br2623     Br  0.93333910  0.52839120  0.12310105    -0.02900
H2624       H  0.91513704  0.42607921  0.12214645     0.09300
H2625       H  0.74934131  0.41008800  0.11629071     0.07300
Br2626     Br  0.73138600  0.30833317  0.11470353    -0.03300
C2627       C  0.07506115  0.84659836  0.12597878    -0.09900
C2628       C  0.03258813  0.85004036  0.12821312     0.06300
C2629       C  0.03941026  0.89798217  0.12998224    -0.03700
C2630       C  0.08687762  0.94097386  0.12906486    -0.08100
C2631       C  0.12836020  0.93757383  0.12635139     0.05400
C2632       C  0.12258084  0.88965805  0.12509498    -0.03200
Br2633     Br  0.17859750  0.88081056  0.12254964    -0.02900
H2634       H  0.07103745  0.81012104  0.12473307     0.09300
H2635       H  0.09094985  0.97760952  0.13019146     0.07300
Br2636     Br  0.98513765  0.90833321  0.13292856    -0.03300
C2637       C  0.61966564  0.40510017  0.11777689    -0.09900
C2638       C  0.61241094  0.44620076  0.11924056     0.06300
C2639       C  0.56323247  0.43703821  0.12066935    -0.03700
C2640       C  0.52290607  0.38768462  0.12073535    -0.08100
C2641       C  0.53029999  0.34663125  0.11945944     0.05400
C2642       C  0.57921283  0.35555130  0.11797098    -0.03200
Br2643     Br  0.59354703  0.30163697  0.11704080    -0.02900
H2644       H  0.65732057  0.41138016  0.11683853     0.09300
H2645       H  0.48536030  0.38124359  0.12187391     0.07300
Br2646     Br  0.54810255  0.48992190  0.12239767    -0.03300
C2647       C  0.64100675  0.61518981  0.08074023    -0.09900
C2648       C  0.64307574  0.57935886  0.07579046     0.06300
C2649       C  0.67566260  0.56118430  0.07805469    -0.03700
C2650       C  0.70199011  0.57618904  0.08524435    -0.08100
C2651       C  0.69894024  0.61092940  0.09031164     0.05400
C2652       C  0.66858419  0.63127946  0.08785090    -0.03200
Br2653     Br  0.66077103  0.67951273  0.09397073    -0.02900
H2654       H  0.61714188  0.63046573  0.07913691     0.09300
H2655       H  0.72602431  0.56103202  0.08680875     0.07300
Br2656     Br  0.68976330  0.51863732  0.07145707    -0.03300
C2657       C  0.08900403  0.95263375  0.20665846    -0.09900
C2658       C  0.12320987  0.96983125  0.21297664     0.06300
C2659       C  0.11595785  0.93729223  0.21935317    -0.03700
C2660       C  0.07513701  0.88810285  0.21927964    -0.08100
C2661       C  0.04124253  0.87083973  0.21294095     0.05400
C2662       C  0.04800786  0.90360832  0.20662134    -0.03200
Br2663     Br  0.00144222  0.88377552  0.19795604    -0.02900
H2664       H  0.09429013  0.97745943  0.20173078     0.09300
H2665       H  0.07062211  0.86282548  0.22407529     0.07300
Br2666     Br  0.16271770  0.95675752  0.22796955    -0.03300
C2667       C  0.57104905  0.37131218  0.20603490    -0.09900
C2668       C  0.53025930  0.37512655  0.20896031     0.06300
C2669       C  0.53752904  0.42292915  0.21086805    -0.03700
C2670       C  0.58544303  0.46534544  0.21014500    -0.08100
C2671       C  0.62702655  0.46125971  0.20762967     0.05400
C2672       C  0.61917665  0.41355880  0.20544548    -0.03200
Br2673     Br  0.67282817  0.40218010  0.20248486    -0.02900
H2674       H  0.56588590  0.33474278  0.20453051     0.09300
H2675       H  0.59049658  0.50176570  0.21176347     0.07300
Br2676     Br  0.48365075  0.43305080  0.21426355    -0.03300
C2677       C  0.77997441  0.84266678  0.21400574    -0.09900
C2678       C  0.82901799  0.85029369  0.21422932     0.06300
C2679       C  0.87028313  0.89960231  0.21460874    -0.03700
C2680       C  0.86201739  0.94040069  0.21469931    -0.08100
C2681       C  0.81299867  0.93293302  0.21438643     0.05400
C2682       C  0.77164515  0.88346559  0.21413397    -0.03200
Br2683     Br  0.70325051  0.86928952  0.21433167    -0.02900
H2684       H  0.74800460  0.80473740  0.21374736     0.09300
H2685       H  0.89416414  0.97826873  0.21477694     0.07300
Br2686     Br  0.93855417  0.91344565  0.21441528    -0.03300
C2687       C  0.80073797  0.41213517  0.20464235    -0.09900
C2688       C  0.83997352  0.44997497  0.20918686     0.06300
C2689       C  0.87473349  0.43909065  0.21279733    -0.03700
C2690       C  0.86839668  0.39097356  0.21213174    -0.08100
C2691       C  0.82748009  0.35219015  0.20799319     0.05400
C2692       C  0.79374367  0.36347901  0.20410638    -0.03200
Br2693     Br  0.73528405  0.31396096  0.19857257    -0.02900
H2694       H  0.77419502  0.41992316  0.20167812     0.09300
H2695       H  0.89569042  0.38372247  0.21500724     0.07300
Br2696     Br  0.93301734  0.48815302  0.21843181    -0.03300
C2697       C  0.84908338  0.62587278  0.17209685    -0.09900
C2698       C  0.82498152  0.65002143  0.17556282     0.06300
C2699       C  0.81560866  0.68211326  0.17072307    -0.03700
C2700       C  0.83042433  0.68953415  0.16276561    -0.08100
C2701       C  0.85421597  0.66528028  0.15927278     0.05400
C2702       C  0.86355873  0.63307040  0.16408360    -0.03200
Br2703     Br  0.89771036  0.59933000  0.16020747    -0.02900
H2704       H  0.85773358  0.60188084  0.17567739     0.09300
H2705       H  0.82116686  0.71308131  0.15919350     0.07300
Br2706     Br  0.77982098  0.71488197  0.17432236    -0.03300
C2707       C  0.70971712  0.02510934  0.24884492    -0.09900
C2708       C  0.73806889  0.01599480  0.24324504     0.06300
C2709       C  0.75152270  0.97912614  0.24496287    -0.03700
C2710       C  0.73761274  0.95339664  0.25218815    -0.08100
C2711       C  0.70975718  0.96282811  0.25783462     0.05400
C2712       C  0.69575905  0.99923494  0.25608411    -0.03200
Br2713     Br  0.66102843  0.01837793  0.26350088    -0.02900
H2714       H  0.69941287  0.05351397  0.24767778     0.09300
H2715       H  0.74808822  0.92511208  0.25334996     0.07300
Br2716     Br  0.78627542  0.95952994  0.23757322    -0.03300
C2717       C  0.62738266  0.84495503  0.32922918    -0.09900
C2718       C  0.65283530  0.82204513  0.32581369     0.06300
C2719       C  0.68459549  0.81276606  0.33071253    -0.03700
C2720       C  0.69090690  0.82697116  0.33867106    -0.08100
C2721       C  0.66503694  0.84916585  0.34214581     0.05400
C2722       C  0.63300264  0.85834461  0.33727389    -0.03200
Br2723     Br  0.59730755  0.89066120  0.34108295    -0.02900
H2724       H  0.60342999  0.85332340  0.32559080     0.09300
H2725       H  0.71434031  0.81775175  0.34227221     0.07300
Br2726     Br  0.71668814  0.77612005  0.32728036    -0.03300
C2727       C  0.94250427  0.84003854  0.36992857    -0.09900
C2728       C  0.94552332  0.79942051  0.37311094     0.06300
C2729       C  0.90115593  0.75822361  0.37626149    -0.03700
C2730       C  0.85698093  0.76073934  0.37688805    -0.08100
C2731       C  0.85500029  0.80296859  0.37419959     0.05400
C2732       C  0.89804877  0.84220314  0.37042631    -0.03200
Br2733     Br  0.90079109  0.90204945  0.36643098    -0.02900
H2734       H  0.97562578  0.87156955  0.36737782     0.09300
H2735       H  0.82380619  0.72928407  0.37948329     0.07300
Br2736     Br  0.89719856  0.69635088  0.37952031    -0.03300
C2737       C  0.43033315  0.80782236  0.38742307    -0.09900
C2738       C  0.44271618  0.79312133  0.38027056     0.06300
C2739       C  0.41297220  0.78645816  0.37351668    -0.03700
C2740       C  0.37409420  0.79742017  0.37385079    -0.08100
C2741       C  0.36283255  0.81368305  0.38088782     0.05400
C2742       C  0.39068956  0.81818194  0.38776731    -0.03200
Br2743     Br  0.37881360  0.84267619  0.39751601    -0.02900
H2744       H  0.45293198  0.81350916  0.39265729     0.09300
H2745       H  0.35174396  0.79220682  0.36859792     0.07300
Br2746     Br  0.42129802  0.75963008  0.36376091    -0.03300
C2747       C  0.41368475  0.79654027  0.29562075    -0.09900
C2748       C  0.45536131  0.84228045  0.29321031     0.06300
C2749       C  0.44928674  0.88422947  0.29193743    -0.03700
C2750       C  0.40155740  0.87915766  0.29274554    -0.08100
C2751       C  0.35914743  0.83259382  0.29476806     0.05400
C2752       C  0.36588911  0.79126897  0.29633076    -0.03200
Br2753     Br  0.31097926  0.72540438  0.29855678    -0.02900
H2754       H  0.41791820  0.76395091  0.29662331     0.09300
H2755       H  0.39725690  0.91151567  0.29155278     0.07300
Br2756     Br  0.50477705  0.94927820  0.28927969    -0.03300
C2757       C  0.87277542  0.82385132  0.28078051    -0.09900
C2758       C  0.86315263  0.84409449  0.28757617     0.06300
C2759       C  0.89692615  0.85863764  0.29399756    -0.03700
C2760       C  0.93703447  0.84934443  0.29378887    -0.08100
C2761       C  0.94521556  0.82698510  0.28716556     0.05400
C2762       C  0.91372677  0.81557668  0.28051509    -0.03200
Br2763     Br  0.92333824  0.78576808  0.27118071    -0.02900
H2764       H  0.84739971  0.81280161  0.27577455     0.09300
H2765       H  0.96242504  0.86021749  0.29879446     0.07300
Br2766     Br  0.89213716  0.89409974  0.30298945    -0.03300
C2767       C  0.16312273  0.85480808  0.33923311    -0.09900
C2768       C  0.12896014  0.80625698  0.34209641     0.06300
C2769       C  0.11049465  0.76540089  0.33680347    -0.03700
C2770       C  0.12594833  0.77365777  0.32886119    -0.08100
C2771       C  0.16010621  0.82224417  0.32599975     0.05400
C2772       C  0.17888333  0.86305678  0.33131826    -0.03200
Br2773     Br  0.22875195  0.93025433  0.32830851    -0.02900
H2774       H  0.17928441  0.88653081  0.34325936     0.09300
H2775       H  0.11022279  0.74186644  0.32484994     0.07300
Br2776     Br  0.06237889  0.69806289  0.33998686    -0.03300
C2777       C  0.02557426  0.77363186  0.25289838    -0.09900
C2778       C  0.01872863  0.73604703  0.25832042     0.06300
C2779       C  0.98468091  0.68521409  0.25631727    -0.03700
C2780       C  0.95927876  0.67339937  0.24902201    -0.08100
C2781       C  0.96620640  0.71122265  0.24360062     0.05400
C2782       C  0.00020397  0.76197134  0.24565432    -0.03200
Br2783     Br  0.01671844  0.81798139  0.23878541    -0.02900
H2784       H  0.05180808  0.81279190  0.25423329     0.09300
H2785       H  0.93293223  0.63429938  0.24767110     0.07300
Br2786     Br  0.96789150  0.63018413  0.26341746    -0.03300
C2787       C  0.88824527  0.10949948  0.37625962    -0.09900
C2788       C  0.93334433  0.11124589  0.37420252     0.06300
C2789       C  0.93123322  0.06773359  0.37096871    -0.03700
C2790       C  0.88513900  0.02287448  0.37044144    -0.08100
C2791       C  0.84040345  0.02024267  0.37297514     0.05400
C2792       C  0.84198926  0.06492210  0.37552355    -0.03200
Br2793     Br  0.78241754  0.06834206  0.37774830    -0.02900
H2794       H  0.88895580  0.14310698  0.37841248     0.09300
H2795       H  0.88471445  0.98927897  0.36839643     0.07300
Br2796     Br  0.98988499  0.06525610  0.36775550    -0.03300
C2797       C  0.38160496  0.51168286  0.37670935    -0.09900
C2798       C  0.34298391  0.51293508  0.38101059     0.06300
C2799       C  0.35558844  0.55517895  0.38583922    -0.03700
C2800       C  0.40500649  0.59592308  0.38583016    -0.08100
C2801       C  0.44311667  0.59541947  0.38124115     0.05400
C2802       C  0.43100912  0.55161469  0.37683873    -0.03200
Br2803     Br  0.47926826  0.54146627  0.37105682    -0.02900
H2804       H  0.37358455  0.47888040  0.37322167     0.09300
H2805       H  0.41329264  0.62867441  0.38934726     0.07300
Br2806     Br  0.30785151  0.56109714  0.39243439    -0.03300
C2807       C  0.12426960  0.07980277  0.37086579    -0.09900
C2808       C  0.16639759  0.12453054  0.37339835     0.06300
C2809       C  0.20891627  0.12244262  0.37616606    -0.03700
C2810       C  0.20691271  0.07599309  0.37690465    -0.08100
C2811       C  0.16352547  0.03096736  0.37481578     0.05400
C2812       C  0.12228713  0.03341769  0.37158025    -0.03200
Br2813     Br  0.05995945  0.97483298  0.36875954    -0.02900
H2814       H  0.09138591  0.08042701  0.36873953     0.09300
H2815       H  0.23955137  0.07506491  0.37912986     0.07300
Br2816     Br  0.27149161  0.18134444  0.37884794    -0.03300
C2817       C  0.18807202  0.56380169  0.38277403    -0.09900
C2818       C  0.14041096  0.52231121  0.38108616     0.06300
C2819       C  0.10029588  0.53067600  0.37930782    -0.03700
C2820       C  0.10908026  0.57988061  0.37884183    -0.08100
C2821       C  0.15699336  0.62134534  0.38035719     0.05400
C2822       C  0.19657082  0.61300730  0.38247815    -0.03200
Br2823     Br  0.26361996  0.66724309  0.38445687    -0.02900
H2824       H  0.21934522  0.55806340  0.38408545     0.09300
H2825       H  0.07801517  0.58580644  0.37740246     0.07300
Br2826     Br  0.03218944  0.47676813  0.37798123    -0.03300
C2827       C  0.89375268  0.06285202  0.28021847    -0.09900
C2828       C  0.87277409  0.03775174  0.28735955     0.06300
C2829       C  0.90255028  0.05203285  0.29423861    -0.03700
C2830       C  0.95126668  0.09299460  0.29399978    -0.08100
C2831       C  0.97170490  0.12002892  0.28696399     0.05400
C2832       C  0.94287840  0.10380486  0.27995261    -0.03200
Br2833     Br  0.96635093  0.13720427  0.26996455    -0.02900
H2834       H  0.87136771  0.05130055  0.27486195     0.09300
H2835       H  0.97340283  0.10379920  0.29938248     0.07300
Br2836     Br  0.88024264  0.01531589  0.30400704    -0.03300
C2837       C  0.38151735  0.56697134  0.28464531    -0.09900
C2838       C  0.36593396  0.53741480  0.29153434     0.06300
C2839       C  0.39294285  0.55839914  0.29864393    -0.03700
C2840       C  0.43521112  0.60700128  0.29863139    -0.08100
C2841       C  0.45173352  0.63536748  0.29164874     0.05400
C2842       C  0.42353066  0.61532860  0.28464704    -0.03200
Br2843     Br  0.43917384  0.65262319  0.27490713    -0.02900
H2844       H  0.36060474  0.55256739  0.27919095     0.09300
H2845       H  0.45668635  0.62172279  0.30402989     0.07300
Br2846     Br  0.37751654  0.52207779  0.30845211    -0.03300
C2847       C  0.12492436  0.02727163  0.28423657    -0.09900
C2848       C  0.16612300  0.02186488  0.28631911     0.06300
C2849       C  0.21304169  0.06535917  0.28780386    -0.03700
C2850       C  0.21758966  0.11302113  0.28734084    -0.08100
C2851       C  0.17594265  0.11844777  0.28546702     0.05400
C2852       C  0.12910214  0.07471598  0.28390654    -0.03200
Br2853     Br  0.06771441  0.07574598  0.28219104    -0.02900
H2854       H  0.08847112  0.99410237  0.28324888     0.09300
H2855       H  0.25380063  0.14601391  0.28854299     0.07300
Br2856     Br  0.27245083  0.06218444  0.29028569    -0.03300
C2857       C  0.18371493  0.60488448  0.29674243    -0.09900
C2858       C  0.14147706  0.60406348  0.29333533     0.06300
C2859       C  0.10081783  0.55741425  0.29093791    -0.03700
C2860       C  0.10438253  0.51379564  0.29148310    -0.08100
C2861       C  0.14801204  0.51510367  0.29440669     0.05400
C2862       C  0.18778653  0.56138823  0.29718042    -0.03200
Br2863     Br  0.25057739  0.56914865  0.30082661    -0.02900
H2864       H  0.21469773  0.64004870  0.29879928     0.09300
H2865       H  0.07288875  0.47852148  0.28947014     0.07300
Br2866     Br  0.03839193  0.55011306  0.28727424    -0.03300
C2867       C  0.17865888  0.35146450  0.33930517    -0.09900
C2868       C  0.17115277  0.30515870  0.34222233     0.06300
C2869       C  0.15898134  0.26581060  0.33682195    -0.03700
C2870       C  0.15445850  0.27329529  0.32872048    -0.08100
C2871       C  0.16182486  0.31970032  0.32581529     0.05400
C2872       C  0.17373433  0.35884052  0.33124741    -0.03200
Br2873     Br  0.17846337  0.42125320  0.32818378    -0.02900
H2874       H  0.18637018  0.38170871  0.34338333     0.09300
H2875       H  0.14561318  0.24271916  0.32464841     0.07300
Br2876     Br  0.15095364  0.20240496  0.34014261    -0.03300
C2877       C  0.20476355  0.24461333  0.25164451    -0.09900
C2878       C  0.24264723  0.27943208  0.25670053     0.06300
C2879       C  0.29338996  0.29841648  0.25445355    -0.03700
C2880       C  0.30498346  0.28202931  0.24741256    -0.08100
C2881       C  0.26707845  0.24631539  0.24244375     0.05400
C2882       C  0.21620381  0.22817910  0.24461791    -0.03200
Br2883     Br  0.15975611  0.18251409  0.23822774    -0.02900
H2884       H  0.16552898  0.22994952  0.25315686     0.09300
H2885       H  0.34421382  0.29644624  0.24593566     0.07300
Br2886     Br  0.34894323  0.34362590  0.26096724    -0.03300
C2887       C  0.03771678  0.33127139  0.41581208    -0.09900
C2888       C  0.06213030  0.36629046  0.40968939     0.06300
C2889       C  0.07107995  0.41596276  0.41067052    -0.03700
C2890       C  0.05712026  0.42985952  0.41768838    -0.08100
C2891       C  0.03362262  0.39526099  0.42384914     0.05400
C2892       C  0.02384471  0.34540821  0.42286730    -0.03200
Br2893     Br  0.99598086  0.29647174  0.43121313    -0.02900
H2894       H  0.03093855  0.29320960  0.41522243     0.09300
H2895       H  0.06430732  0.46806012  0.41831109     0.07300
Br2896     Br  0.09989782  0.46648085  0.40254313    -0.03300
C2897       C  0.00490744  0.52750088  0.50488831    -0.09900
C2898       C  0.98224379  0.47910285  0.50829161     0.06300
C2899       C  0.95162270  0.43720562  0.50343177    -0.03700
C2900       C  0.94523128  0.44445903  0.49541360    -0.08100
C2901       C  0.96872486  0.49286154  0.49198829     0.05400
C2902       C  0.99823398  0.53467729  0.49688687    -0.03200
Br2903     Br  0.02835111  0.60278633  0.49314095    -0.02900
H2904       H  0.02715632  0.56039996  0.50852254     0.09300
H2905       H  0.92326316  0.41158536  0.49175879     0.07300
Br2906     Br  0.91982004  0.36877978  0.50714385    -0.03300
C2907       C  0.21298765  0.69003827  0.44707755    -0.09900
C2908       C  0.19473687  0.66788814  0.45453351     0.06300
C2909       C  0.21986129  0.69583618  0.46136837    -0.03700
C2910       C  0.25913209  0.74556707  0.46066084    -0.08100
C2911       C  0.27586682  0.76842585  0.45324007     0.05400
C2912       C  0.25341587  0.73951934  0.44638183    -0.03200
Br2913     Br  0.27403505  0.76600155  0.43591460    -0.02900
H2914       H  0.19474824  0.66941332  0.44174287     0.09300
H2915       H  0.27742828  0.76634132  0.46598673     0.07300
Br2916     Br  0.20501150  0.66826183  0.47187440    -0.03300
C2917       C  0.74208143  0.26967153  0.46282294    -0.09900
C2918       C  0.78285619  0.26720032  0.45950898     0.06300
C2919       C  0.77624086  0.22007561  0.45734819    -0.03700
C2920       C  0.72869319  0.17709585  0.45803827    -0.08100
C2921       C  0.68676230  0.17987992  0.46080092     0.05400
C2922       C  0.69428356  0.22675508  0.46344206    -0.03200
Br2923     Br  0.64061931  0.23615704  0.46720678    -0.02900
H2924       H  0.74682715  0.30574262  0.46459462     0.09300
H2925       H  0.72414878  0.14130111  0.45615531     0.07300
Br2926     Br  0.83081074  0.21199932  0.45359810    -0.03300
C2927       C  0.30764277  0.88385462  0.42320694    -0.09900
C2928       C  0.35189474  0.93105808  0.42323104     0.06300
C2929       C  0.36303897  0.96251740  0.41654202    -0.03700
C2930       C  0.33065053  0.94588605  0.40997832    -0.08100
C2931       C  0.28697495  0.89811377  0.40992843     0.05400
C2932       C  0.27526057  0.86735410  0.41668864    -0.03200
Br2933     Br  0.21372615  0.80422179  0.41760731    -0.02900
H2934       H  0.29746369  0.86016942  0.42840305     0.09300
H2935       H  0.34027187  0.96990689  0.40480859     0.07300
Br2936     Br  0.42310709  0.02710468  0.41584379    -0.03300
C2937       C  0.51288975  0.96581521  0.50458434    -0.09900
C2938       C  0.48354286  0.98400916  0.50810399     0.06300
C2939       C  0.46811477  0.01181957  0.50334343    -0.03700
C2940       C  0.48152417  0.02015763  0.49531852    -0.08100
C2941       C  0.50999099  0.00106942  0.49176007     0.05400
C2942       C  0.52612605  0.97402771  0.49654391    -0.03200
Br2943     Br  0.56798822  0.94895348  0.49256001    -0.02900
H2944       H  0.52649526  0.94572496  0.50814480     0.09300
H2945       H  0.46755828  0.03992141  0.49175500     0.07300
Br2946     Br  0.42555768  0.03646824  0.50720266    -0.03300
C2947       C  0.26284457  0.76915075  0.53447258    -0.24300
C2948       C  0.29596314  0.77773331  0.54077057     0.06300
C2949       C  0.27925901  0.74356051  0.54717867    -0.03700
C2950       C  0.22971173  0.70345682  0.54740556    -0.08100
C2951       C  0.19581099  0.69585025  0.54128607     0.05400
C2952       C  0.21312971  0.72852530  0.53466523    -0.03200
Br2953     Br  0.16968493  0.72213855  0.52604202    -0.02900
H2954       H  0.27486736  0.79548596  0.52957498     0.09300
H2955       H  0.21767347  0.67774682  0.55238928     0.07300
Br2956     Br  0.32291652  0.74937816  0.55575371    -0.03300
C2957       C  0.74995212  0.20335683  0.54681369    -0.09900
C2958       C  0.70191255  0.19727792  0.54784243     0.06300
C2959       C  0.69726672  0.24003748  0.54943435    -0.03700
C2960       C  0.74039209  0.28780969  0.54978922    -0.08100
C2961       C  0.78818945  0.29386548  0.54844304     0.05400
C2962       C  0.79287452  0.25098698  0.54715552    -0.03200
Br2963     Br  0.85712406  0.25510154  0.54603404    -0.02900
H2964       H  0.75414903  0.17082967  0.54574305     0.09300
H2965       H  0.73633183  0.32058018  0.55067849     0.07300
Br2966     Br  0.63317673  0.23658829  0.55031637    -0.03300
C2967       C  0.76934572  0.49665072  0.46486051    -0.09900
C2968       C  0.78545733  0.48126155  0.45821511     0.06300
C2969       C  0.75602126  0.46782278  0.45127106    -0.03700
C2970       C  0.71278703  0.47206613  0.45093889    -0.08100
C2971       C  0.69717645  0.48899094  0.45747413     0.05400
C2972       C  0.72570776  0.50067413  0.46455687    -0.03200
Br2973     Br  0.70965749  0.52576472  0.47385194    -0.02900
H2974       H  0.79173585  0.50731031  0.47021422     0.09300
H2975       H  0.69076468  0.46126075  0.44554628     0.07300
Br2976     Br  0.77178628  0.44103394  0.44214089    -0.03300
C2977       C  0.26855944  0.48352468  0.44758436    -0.09900
C2978       C  0.29628326  0.50126249  0.45462043     0.06300
C2979       C  0.27322028  0.50860687  0.46132218    -0.03700
C2980       C  0.22275285  0.49587813  0.46100786    -0.08100
C2981       C  0.19482215  0.47708817  0.45403895     0.05400
C2982       C  0.21823762  0.47164669  0.44723983    -0.03200
Br2983     Br  0.18225638  0.44522437  0.43750859    -0.02900
H2984       H  0.28552812  0.47722529  0.44241095     0.09300
H2985       H  0.20558476  0.50201139  0.46617521     0.07300
Br2986     Br  0.30931797  0.53890117  0.47090063    -0.03300
C2987       C  0.50902843  0.22781814  0.46130446    -0.09900
C2988       C  0.46641431  0.18621904  0.45802675     0.06300
C2989       C  0.42526433  0.19159822  0.45575369    -0.03700
C2990       C  0.42836732  0.23851171  0.45643532    -0.08100
C2991       C  0.47203494  0.28093155  0.45937115     0.05400
C2992       C  0.51242367  0.27487723  0.46194953    -0.03200
Br2993     Br  0.57508988  0.32966371  0.46570451    -0.02900
H2994       H  0.54085753  0.22416737  0.46311098     0.09300
H2995       H  0.39652874  0.24198400  0.45452872     0.07300
Br2996     Br  0.36319491  0.13600672  0.45202991    -0.03300
C2997       C  0.53412053  0.74965041  0.45472067    -0.09900
C2998       C  0.49216532  0.70211171  0.45320928     0.06300
C2999       C  0.44482744  0.69828920  0.45187075    -0.03700
C3000       C  0.44040497  0.74142463  0.45208426    -0.08100
C3001       C  0.48220053  0.78856695  0.45370857     0.05400
C3002       C  0.52955600  0.79270819  0.45493928    -0.03200
Br3003     Br  0.58966627  0.85652979  0.45650470    -0.02900
H3004       H  0.57079235  0.75343319  0.45565406     0.09300
H3005       H  0.40378628  0.73792975  0.45121846     0.07300
Br3006     Br  0.38377085  0.63540614  0.45035711    -0.03300
C3007       C  0.59214409  0.60989798  0.41763378    -0.09900
C3008       C  0.56875426  0.62157465  0.42375339     0.06300
C3009       C  0.56470104  0.66535220  0.42309593    -0.03700
C3010       C  0.58104108  0.69446971  0.41621557    -0.08100
C3011       C  0.60338527  0.68214536  0.41003416     0.05400
C3012       C  0.60962167  0.63984399  0.41082859    -0.03200
Br3013     Br  0.63855884  0.61914018  0.40263142    -0.02900
H3014       H  0.59605099  0.57678701  0.41808035     0.09300
H3015       H  0.57690426  0.72744442  0.41572813     0.07300
Br3016     Br  0.54124060  0.69002880  0.43158184    -0.03300
C3017       C  0.17429185  0.43517986  0.54256238    -0.09900
C3018       C  0.17743063  0.48020702  0.53994579     0.06300
C3019       C  0.22482750  0.52082220  0.53776596    -0.03700
C3020       C  0.26756359  0.51551707  0.53824187    -0.08100
C3021       C  0.26458636  0.47119152  0.54119393     0.05400
C3022       C  0.21711624  0.43062440  0.54331443    -0.03200
Br3023     Br  0.20768552  0.36773532  0.54720483    -0.02900
H3024       H  0.13820890  0.40356411  0.54428517     0.09300
H3025       H  0.30377207  0.54712950  0.53667749     0.07300
Br3026     Br  0.23463508  0.58602041  0.53507936    -0.03300
C3027       C  0.71342722  0.52342096  0.54555926    -0.09900
C3028       C  0.67298166  0.47588770  0.54761668     0.06300
C3029       C  0.68300403  0.43795552  0.55011365    -0.03700
C3030       C  0.73276605  0.44772358  0.55025162    -0.08100
C3031       C  0.77311610  0.49478494  0.54786930     0.05400
C3032       C  0.76302224  0.53322718  0.54570027    -0.03200
Br3033     Br  0.81504702  0.60046123  0.54316647    -0.02900
H3034       H  0.70634919  0.55326638  0.54378244     0.09300
H3035       H  0.73966905  0.41758477  0.55191134     0.07300
Br3036     Br  0.63027128  0.37097706  0.55264379    -0.03300
C3037       C  0.46048664  0.73969533  0.53747132    -0.09900
C3038       C  0.50297272  0.77941640  0.54113688     0.06300
C3039       C  0.54114934  0.77064275  0.54392328    -0.03700
C3040       C  0.53542867  0.72266328  0.54326165    -0.08100
C3041       C  0.49173658  0.68209279  0.53997196     0.05400
C3042       C  0.45432856  0.69139359  0.53693369    -0.03200
Br3043     Br  0.39189063  0.63968983  0.53268404    -0.02900
H3044       H  0.43062866  0.74566101  0.53530999     0.09300
H3045       H  0.56513266  0.71681411  0.54553042     0.07300
Br3046     Br  0.60248354  0.82235564  0.54853823    -0.03300
C3047       C  0.49127303  0.20211826  0.54005345    -0.09900
C3048       C  0.48813290  0.17769801  0.54723197     0.06300
C3049       C  0.47733613  0.19542677  0.55424139    -0.03700
C3050       C  0.46972502  0.23680392  0.55390057    -0.08100
C3051       C  0.47181230  0.26026816  0.54664643     0.05400
C3052       C  0.48313432  0.24270736  0.53969169    -0.03200
Br3053     Br  0.49132539  0.27406048  0.52954124    -0.02900
H3054       H  0.50043016  0.18965645  0.53462969     0.09300
H3055       H  0.46118074  0.25010578  0.55929438     0.07300
Br3056     Br  0.46895197  0.16295683  0.56428275    -0.03300
C3057       C  0.52778662  0.51088282  0.50342764    -0.09900
C3058       C  0.48433102  0.48712987  0.50814784     0.06300
C3059       C  0.43813940  0.45261228  0.50453030    -0.03700
C3060       C  0.43622705  0.44257788  0.49640875    -0.08100
C3061       C  0.47966250  0.46610214  0.49169281     0.05400
C3062       C  0.52571159  0.50150642  0.49527367    -0.03200
Br3063     Br  0.58604960  0.54233797  0.48928314    -0.02900
H3064       H  0.56342173  0.53785976  0.50606666     0.09300
H3065       H  0.40044259  0.41614651  0.49375281     0.07300
Br3066     Br  0.37658559  0.41555574  0.51037998    -0.03300
C3067       C  0.03567178  0.64114756  0.92017894    -0.09900
C3068       C  0.05921207  0.61280429  0.92181155     0.06300
C3069       C  0.09532233  0.61542345  0.91632089    -0.03700
C3070       C  0.10752951  0.64615390  0.90960239    -0.08100
C3071       C  0.08497170  0.67548178  0.90803778     0.05400
C3072       C  0.04815831  0.67225914  0.91344898    -0.03200
Br3073     Br  0.01514364  0.71103704  0.91237911    -0.02900
H3074       H  0.00824830  0.64034839  0.92430333     0.09300
H3075       H  0.13507621  0.64676889  0.90552270     0.07300
Br3076     Br  0.12860564  0.57690823  0.91726677    -0.03300
C3077       C  0.20872773  0.82272877  0.82824368    -0.09900
C3078       C  0.16028900  0.79734529  0.82489991     0.06300
C3079       C  0.11836779  0.78420556  0.82982092    -0.03700
C3080       C  0.12571004  0.79897788  0.83777069    -0.08100
C3081       C  0.17435391  0.82595955  0.84102554     0.05400
C3082       C  0.21613177  0.83692489  0.83618090    -0.03200
Br3083     Br  0.28473135  0.87373846  0.83979494    -0.02900
H3084       H  0.24162133  0.83392912  0.82458343     0.09300
H3085       H  0.09302606  0.78809982  0.84147944     0.07300
Br3086     Br  0.05035812  0.74387283  0.82616296    -0.03300
C3087       C  0.43518767  0.80304417  0.79544838    -0.09900
C3088       C  0.48056960  0.84623115  0.79340740     0.06300
C3089       C  0.47944341  0.88966233  0.79086616    -0.03700
C3090       C  0.43345894  0.88801902  0.78989327    -0.08100
C3091       C  0.38810024  0.84421643  0.79162372     0.05400
C3092       C  0.38921604  0.80171408  0.79461902    -0.03200
Br3093     Br  0.32927559  0.73937092  0.79711830    -0.02900
H3094       H  0.43516125  0.76925035  0.79731361     0.09300
H3095       H  0.43316468  0.92142349  0.78788038     0.07300
Br3096     Br  0.53909654  0.95311482  0.78889859    -0.03300
C3097       C  0.90866261  0.84147820  0.79399505    -0.09900
C3098       C  0.88395803  0.83210653  0.78670137     0.06300
C3099       C  0.90877444  0.83024353  0.77980191    -0.03700
C3100       C  0.95737363  0.83701935  0.78035594    -0.08100
C3101       C  0.98160771  0.84500213  0.78772691     0.05400
C3102       C  0.95677805  0.84789767  0.79458009    -0.03200
Br3103     Br  0.98618536  0.86219103  0.80494994    -0.02900
H3104       H  0.89037803  0.84406186  0.79931900     0.09300
H3105       H  0.97551616  0.83421564  0.77503538     0.07300
Br3106     Br  0.87648657  0.81410389  0.76963802    -0.03300
C3107       C  0.61322128  0.88093278  0.91535079    -0.09900
C3108       C  0.63347675  0.91557126  0.90909323     0.06300
C3109       C  0.64190816  0.96482603  0.91026164    -0.03700
C3110       C  0.62779638  0.97759277  0.91742649    -0.08100
C3111       C  0.60579976  0.94225843  0.92358545     0.05400
C3112       C  0.60055925  0.89409760  0.92257931    -0.03200
Br3113     Br  0.58033976  0.84598660  0.93104782    -0.02900
H3114       H  0.60810801  0.84353683  0.91466472     0.09300
H3115       H  0.63274330  0.01492386  0.91809459     0.07300
Br3116     Br  0.66934273  0.01519548  0.90212128    -0.03300
C3117       C  0.40960557  0.87063193  0.87690765    -0.09900
C3118       C  0.37029520  0.82628338  0.88025587     0.06300
C3119       C  0.38193565  0.79238380  0.88399731    -0.03700
C3120       C  0.43164017  0.80239580  0.88407898    -0.08100
C3121       C  0.47069792  0.84531741  0.88033573     0.05400
C3122       C  0.45925895  0.88040750  0.87688742    -0.03200
Br3123     Br  0.50869798  0.94259328  0.87209243    -0.02900
H3124       H  0.40152154  0.89768364  0.87413952     0.09300
H3125       H  0.43915683  0.77481814  0.88677075     0.07300
Br3126     Br  0.33150571  0.72917345  0.88833627    -0.03300
C3127       C  0.91153945  0.85498149  0.87077446    -0.09900
C3128       C  0.86609253  0.81128359  0.87269519     0.06300
C3129       C  0.86766055  0.76788527  0.87510445    -0.03700
C3130       C  0.91384650  0.76975330  0.87599459    -0.08100
C3131       C  0.95923613  0.81387371  0.87436679     0.05400
C3132       C  0.95783929  0.85667857  0.87159954    -0.03200
Br3133     Br  0.01785458  0.91991034  0.86957186    -0.02900
H3134       H  0.91133126  0.88886151  0.86902280     0.09300
H3135       H  0.91426207  0.73617346  0.87787142     0.07300
Br3136     Br  0.80828812  0.70399165  0.87692977    -0.03300
C3137       C  0.62930239  0.82811792  0.83824460    -0.09900
C3138       C  0.67536399  0.83352929  0.84088114     0.06300
C3139       C  0.71502150  0.84906192  0.83540192    -0.03700
C3140       C  0.70831076  0.85901652  0.82755246    -0.08100
C3141       C  0.66209235  0.85276842  0.82486116     0.05400
C3142       C  0.62228782  0.83715009  0.83032268    -0.03200
Br3143     Br  0.55835162  0.82907454  0.82735835    -0.02900
H3144       H  0.59856074  0.81708908  0.84238850     0.09300
H3145       H  0.73885278  0.86909238  0.82340499     0.07300
Br3146     Br  0.77731278  0.85215913  0.83800472    -0.03300
C3147       C  0.21341429  0.09270302  0.78660264    -0.09900
C3148       C  0.17173407  0.04500789  0.78516680     0.06300
C3149       C  0.12508937  0.04122940  0.78313297    -0.03700
C3150       C  0.12069656  0.08451356  0.78299028    -0.08100
C3151       C  0.16208044  0.13170182  0.78476383     0.05400
C3152       C  0.20917420  0.13579908  0.78628756    -0.03200
Br3153     Br  0.26978881  0.19958996  0.78754686    -0.02900
H3154       H  0.24981081  0.09663299  0.78788337     0.09300
H3155       H  0.08441152  0.08105154  0.78177739     0.07300
Br3156     Br  0.06493065  0.97846281  0.78100197    -0.03300
C3157       C  0.15423372  0.60089080  0.79788240    -0.09900
C3158       C  0.18303884  0.63876213  0.79237185     0.06300
C3159       C  0.20724052  0.62822820  0.78618864    -0.03700
C3160       C  0.20185139  0.58035191  0.78551286    -0.08100
C3161       C  0.17222542  0.54202637  0.79089908     0.05400
C3162       C  0.14852036  0.55266125  0.79716786    -0.03200
Br3163     Br  0.10396839  0.50128063  0.80438810    -0.02900
H3164       H  0.13406184  0.60802259  0.80249233     0.09300
H3165       H  0.22081562  0.57296122  0.78073548     0.07300
Br3166     Br  0.24735425  0.67798865  0.77839968    -0.03300
C3167       C  0.38214854  0.56352842  0.79686590    -0.09900
C3168       C  0.37847233  0.52217483  0.79270595     0.06300
C3169       C  0.42227863  0.52761210  0.78895585    -0.03700
C3170       C  0.46667387  0.57410776  0.78898649    -0.08100
C3171       C  0.46950683  0.61622034  0.79272803     0.05400
C3172       C  0.42681860  0.61016336  0.79691031    -0.03200
Br3173     Br  0.42436833  0.66418041  0.80222811    -0.02900
H3174       H  0.34932252  0.56046167  0.79979692     0.09300
H3175       H  0.49931024  0.57740480  0.78594917     0.07300
Br3176     Br  0.42590782  0.47400043  0.78369757    -0.03300
C3177       C  0.86565190  0.06721982  0.78854262    -0.09900
C3178       C  0.87029257  0.02623871  0.78597053     0.06300
C3179       C  0.91670610  0.03511432  0.78288856    -0.03700
C3180       C  0.95751224  0.08436228  0.78257941    -0.08100
C3181       C  0.95328078  0.12528353  0.78539428     0.05400
C3182       C  0.90635267  0.11621279  0.78833102    -0.03200
Br3183     Br  0.89403391  0.16829020  0.79203902    -0.02900
H3184       H  0.82993092  0.06108503  0.79079745     0.09300
H3185       H  0.99333468  0.09037358  0.78040413     0.07300
Br3186     Br  0.92811404  0.98159492  0.77967087    -0.03300
C3187       C  0.31396332  0.34345650  0.91354644    -0.09900
C3188       C  0.31498312  0.38092226  0.90858659     0.06300
C3189       C  0.34606633  0.43191785  0.91088599    -0.03700
C3190       C  0.37459592  0.44389611  0.91786217    -0.08100
C3191       C  0.37375225  0.40652506  0.92280085     0.05400
C3192       C  0.34238205  0.35557950  0.92056568    -0.03200
Br3193     Br  0.33344862  0.30022470  0.92702390    -0.02900
H3194       H  0.29011790  0.30411534  0.91203544     0.09300
H3195       H  0.39831524  0.48325018  0.91938115     0.07300
Br3196     Br  0.35416668  0.48820558  0.90471613    -0.03300
C3197       C  0.21168899  0.37063788  0.83691251    -0.09900
C3198       C  0.18394114  0.32113548  0.83994007     0.06300
C3199       C  0.17043293  0.28075593  0.83465917    -0.03700
C3200       C  0.18278922  0.29035103  0.82662462    -0.08100
C3201       C  0.20864669  0.33974796  0.82353859     0.05400
C3202       C  0.22428725  0.38017928  0.82886416    -0.03200
Br3203     Br  0.26515741  0.44909056  0.82565722    -0.02900
H3204       H  0.22429763  0.40251573  0.84085788     0.09300
H3205       H  0.16987106  0.25834735  0.82270327     0.07300
Br3206     Br  0.13167752  0.21140363  0.83773122    -0.03300
C3207       C  0.96975993  0.09636061  0.88016122    -0.09900
C3208       C  0.98616104  0.12134485  0.87286170     0.06300
C3209       C  0.95481562  0.10116151  0.86620420    -0.03700
C3210       C  0.90758190  0.05725736  0.86701662    -0.08100
C3211       C  0.89030836  0.03354420  0.87443954     0.05400
C3212       C  0.92267044  0.05331864  0.88102502    -0.03200
Br3213     Br  0.90651869  0.02320428  0.89136937    -0.02900
H3214       H  0.99369298  0.11104811  0.88532997     0.09300
H3215       H  0.88349826  0.04267243  0.86186915     0.07300
Br3216     Br  0.97237267  0.13453663  0.85613147    -0.03300
C3217       C  0.39718152  0.57056713  0.88479587    -0.09900
C3218       C  0.40007107  0.53246304  0.88057362     0.06300
C3219       C  0.44602408  0.54472708  0.87683180    -0.03700
C3220       C  0.48523218  0.59457787  0.87669969    -0.08100
C3221       C  0.48086644  0.63322486  0.88039966     0.05400
C3222       C  0.43679955  0.62050748  0.88472561    -0.03200
Br3223     Br  0.42646105  0.66950367  0.89016371    -0.02900
H3224       H  0.36322320  0.56200578  0.88798222     0.09300
H3225       H  0.51971105  0.60317922  0.87364931     0.07300
Br3226     Br  0.45979834  0.49601379  0.87206680    -0.03300
C3227       C  0.17634316  0.04070415  0.88185710    -0.09900
C3228       C  0.17239947  0.01808386  0.87445776     0.06300
C3229       C  0.17148087  0.04357085  0.86757494    -0.03700
C3230       C  0.17590459  0.09112063  0.86823855    -0.08100
C3231       C  0.18167945  0.11451778  0.87565974     0.05400
C3232       C  0.18121922  0.08811172  0.88254158    -0.03200
Br3233     Br  0.18568884  0.11237606  0.89317120    -0.02900
H3234       H  0.17584463  0.02134109  0.88725170     0.09300
H3235       H  0.17580391  0.11026581  0.86285748     0.07300
Br3236     Br  0.16755956  0.01766372  0.85710275    -0.03300
C3237       C  0.20689733  0.60505325  0.88040200    -0.09900
C3238       C  0.15915272  0.59841207  0.87870103     0.06300
C3239       C  0.11931742  0.54969718  0.87686961    -0.03700
C3240       C  0.12825226  0.50928316  0.87665660    -0.08100
C3241       C  0.17627723  0.51641833  0.87826468     0.05400
C3242       C  0.21580376  0.56481104  0.88013144    -0.03200
Br3243     Br  0.28377932  0.57929498  0.88149333    -0.02900
H3244       H  0.23817875  0.64227615  0.88161444     0.09300
H3245       H  0.09752405  0.47203610  0.87522268     0.07300
Br3246     Br  0.05178227  0.53523975  0.87487448    -0.03300
C3247       C  0.28039888  0.96217398  0.75134420    -0.09900
C3248       C  0.25266346  0.96986708  0.75724624     0.06300
C3249       C  0.24076837  0.00847395  0.75612738    -0.03700
C3250       C  0.25491506  0.03684135  0.74914804    -0.08100
C3251       C  0.28186000  0.02865180  0.74320369     0.05400
C3252       C  0.29476223  0.99089150  0.74436119    -0.03200
Br3253     Br  0.32805693  0.97383170  0.73637027    -0.02900
H3254       H  0.28977239  0.93272534  0.75206187     0.09300
H3255       H  0.24526492  0.06607933  0.74839660     0.07300
Br3256     Br  0.20811873  0.02707429  0.76404422    -0.03300
C3257       C  0.34345956  0.13711661  0.66321628    -0.09900
C3258       C  0.31670895  0.15403028  0.65864015     0.06300
C3259       C  0.29959545  0.18423692  0.66230068    -0.03700
C3260       C  0.30982768  0.19698190  0.67030789    -0.08100
C3261       C  0.33676098  0.18019725  0.67486646     0.05400
C3262       C  0.35274072  0.14897097  0.67124937    -0.03200
Br3263     Br  0.38208890  0.11605882  0.67701629    -0.02900
H3264       H  0.35625461  0.11334517  0.66056426     0.09300
H3265       H  0.29611277  0.21980783  0.67302465     0.07300
Br3266     Br  0.26394669  0.21146571  0.65676387    -0.03300
C3267       C  0.33136205  0.27976747  0.58520833    -0.09900
C3268       C  0.36951801  0.28763466  0.59061103     0.06300
C3269       C  0.41974540  0.32443146  0.58876440    -0.03700
C3270       C  0.43078207  0.35079738  0.58159873    -0.08100
C3271       C  0.39284712  0.34241697  0.57613732     0.05400
C3272       C  0.34249218  0.30650644  0.57804236    -0.03200
Br3273     Br  0.28757266  0.28927936  0.57091982    -0.02900
H3274       H  0.29262380  0.25170887  0.58647104     0.09300
H3275       H  0.46956247  0.37874969  0.58033404     0.07300
Br3276     Br  0.47513545  0.34344372  0.59590907    -0.03300
C3277       C  0.55714085  0.37101206  0.70364791    -0.09900
C3278       C  0.51441527  0.36877038  0.70709325     0.06300
C3279       C  0.51968057  0.41282704  0.71072735    -0.03700
C3280       C  0.56702068  0.45636669  0.71115893    -0.08100
C3281       C  0.61005305  0.45784220  0.70801413     0.05400
C3282       C  0.60451135  0.41458467  0.70410362    -0.03200
Br3283     Br  0.66017744  0.40991492  0.69991764    -0.02900
H3284       H  0.55436417  0.33775874  0.70092553     0.09300
H3285       H  0.57020934  0.48943735  0.71402058     0.07300
Br3286     Br  0.46450355  0.41752627  0.71517492    -0.03300
C3287       C  0.04186369  0.88770630  0.70586598    -0.09900
C3288       C  0.01855470  0.86374236  0.71300507     0.06300
C3289       C  0.04581080  0.88172884  0.72013851    -0.03700
C3290       C  0.09536992  0.92187166  0.71995911    -0.08100
C3291       C  0.11884805  0.94467032  0.71279334     0.05400
C3292       C  0.09124801  0.92787800  0.70570335    -0.03200
Br3293     Br  0.11719200  0.96025166  0.69568842    -0.02900
H3294       H  0.02141284  0.87521767  0.70033651     0.09300
H3295       H  0.11603637  0.93494003  0.72546243     0.07300
Br3296     Br  0.01975699  0.85208707  0.73028135    -0.03300
C3297       C  0.72983825  0.68242137  0.74963592    -0.09900
C3298       C  0.74267122  0.71299938  0.74286225     0.06300
C3299       C  0.74202938  0.75868351  0.74329240    -0.03700
C3300       C  0.73073286  0.77385820  0.75044833    -0.08100
C3301       C  0.71896707  0.74388976  0.75725632     0.05400
C3302       C  0.71835937  0.69762535  0.75680341    -0.03200
Br3303     Br  0.70643267  0.65604869  0.76595560    -0.02900
H3304       H  0.73057184  0.64750047  0.74943387     0.09300
H3305       H  0.73048497  0.80902978  0.75067262     0.07300
Br3306     Br  0.75348216  0.80059857  0.73418276    -0.03300
C3307       C  0.03762693  0.89104491  0.62984521    -0.09900
C3308       C  0.04038022  0.85165756  0.62604974     0.06300
C3309       C  0.08763444  0.86006293  0.62351859    -0.03700
C3310       C  0.13022472  0.90759972  0.62447041    -0.08100
C3311       C  0.12710856  0.94827517  0.62774482     0.05400
C3312       C  0.08009219  0.93906398  0.63063070    -0.03200
Br3313     Br  0.06952888  0.99068756  0.63496591    -0.02900
H3314       H  0.00157859  0.88514783  0.63188665     0.09300
H3315       H  0.16599710  0.91320519  0.62234427     0.07300
Br3316     Br  0.09697139  0.80845736  0.61880862    -0.03300
C3317       C  0.62174336  0.40759854  0.61694317    -0.09900
C3318       C  0.62778878  0.45418323  0.61923084     0.06300
C3319       C  0.58484768  0.45809406  0.62088344    -0.03700
C3320       C  0.53710296  0.41528238  0.62059424    -0.08100
C3321       C  0.53093464  0.36808295  0.61864040     0.05400
C3322       C  0.57396382  0.36458843  0.61667348    -0.03200
Br3323     Br  0.57143607  0.30215293  0.61427816    -0.02900
H3324       H  0.65455845  0.40418944  0.61569251     0.09300
H3325       H  0.50455289  0.41889946  0.62195982     0.07300
Br3326     Br  0.58880597  0.52112875  0.62330320    -0.03300
C3327       C  0.81894178  0.61064540  0.66186584    -0.09900
C3328       C  0.82467529  0.65580573  0.65871998     0.06300
C3329       C  0.84053703  0.69746148  0.66381586    -0.03700
C3330       C  0.84898312  0.69294890  0.67183668    -0.08100
C3331       C  0.84243709  0.64761720  0.67501564     0.05400
C3332       C  0.82806036  0.60643584  0.66989775    -0.03200
Br3333     Br  0.82411959  0.54516654  0.67343399    -0.02900
H3334       H  0.80866487  0.57877108  0.65800589     0.09300
H3335       H  0.85917187  0.72486802  0.67568261     0.07300
Br3336     Br  0.84856769  0.76073250  0.66036316    -0.03300
C3337       C  0.93248367  0.63328415  0.58519315    -0.09900
C3338       C  0.90976826  0.59643317  0.59112907     0.06300
C3339       C  0.90241441  0.54782130  0.58972446    -0.03700
C3340       C  0.91564060  0.53647881  0.58240509    -0.08100
C3341       C  0.93756836  0.57304829  0.57642643     0.05400
C3342       C  0.94638103  0.62204614  0.57790073    -0.03200
Br3343     Br  0.97378507  0.67399548  0.57000359    -0.02900
H3344       H  0.93829058  0.67074079  0.58615049     0.09300
H3345       H  0.90947513  0.49890184  0.58141949     0.07300
Br3346     Br  0.87794403  0.49631113  0.59772218    -0.03300
C3347       C  0.86342915  0.91132531  0.71697838    -0.09900
C3348       C  0.81944846  0.87053465  0.71380262     0.06300
C3349       C  0.78261686  0.87992129  0.71047976    -0.03700
C3350       C  0.79095368  0.92891600  0.71020586    -0.08100
C3351       C  0.83519227  0.96970341  0.71321851     0.05400
C3352       C  0.87162190  0.96053281  0.71670621    -0.03200
Br3353     Br  0.93474750  0.01354494  0.72066437    -0.02900
H3354       H  0.89247692  0.90527575  0.71947920     0.09300
H3355       H  0.76209796  0.93508981  0.70765079     0.07300
Br3356     Br  0.71899632  0.82835356  0.70639947    -0.03300
C3357       C  0.88980740  0.42715594  0.70752939    -0.09900
C3358       C  0.84486519  0.38072288  0.70770181     0.06300
C3359       C  0.79861475  0.37952153  0.70681031    -0.03700
C3360       C  0.79771460  0.42443381  0.70608731    -0.08100
C3361       C  0.84242435  0.47105954  0.70617447     0.05400
C3362       C  0.88892706  0.47215563  0.70665409    -0.03200
Br3363     Br  0.95205671  0.53373343  0.70569896    -0.02900
H3364       H  0.92560905  0.42834549  0.70797714     0.09300
H3365       H  0.76175728  0.42299228  0.70585135     0.07300
Br3366     Br  0.73533274  0.31770358  0.70713296    -0.03300
C3367       C  0.04270754  0.13004607  0.70643614    -0.09900
C3368       C  0.03522845  0.15200828  0.71318484     0.06300
C3369       C  0.06675726  0.16192354  0.71979601    -0.03700
C3370       C  0.10616204  0.15135568  0.71945237    -0.08100
C3371       C  0.11486112  0.13111293  0.71257327     0.05400
C3372       C  0.08179314  0.11922098  0.70610060    -0.03200
Br3373     Br  0.08691917  0.08653670  0.69676403    -0.02900
H3374       H  0.01776536  0.12100092  0.70140308     0.09300
H3375       H  0.13160264  0.16133442  0.72443494     0.07300
Br3376     Br  0.06045846  0.19408334  0.72911358    -0.03300
C3377       C  0.60220141  0.15679238  0.70136918    -0.09900
C3378       C  0.63477412  0.17542653  0.70789319     0.06300
C3379       C  0.61895017  0.19064924  0.71468230    -0.03700
C3380       C  0.57124896  0.18579104  0.71495394    -0.08100
C3381       C  0.53794729  0.16587374  0.70856113     0.05400
C3382       C  0.55393065  0.15153485  0.70167276    -0.03200
Br3383     Br  0.50980210  0.11974387  0.69286159    -0.02900
H3384       H  0.61326750  0.14390057  0.69618878     0.09300
H3385       H  0.56016796  0.19792465  0.72022301     0.07300
Br3386     Br  0.66119610  0.21937217  0.72379743    -0.03300
C3387       C  0.99156333  0.29744033  0.74483025    -0.09900
C3388       C  0.96730689  0.24630944  0.74260317     0.06300
C3389       C  0.97557316  0.21298946  0.74734256    -0.03700
C3390       C  0.00743708  0.23111159  0.75390878    -0.08100
C3391       C  0.03236252  0.28229262  0.75610776     0.05400
C3392       C  0.02361789  0.31559941  0.75144500    -0.03200
Br3393     Br  0.05438751  0.38647185  0.75350586    -0.02900
H3394       H  0.98632472  0.32402084  0.74132082     0.09300
H3395       H  0.01230261  0.20412459  0.75736849     0.07300
Br3396     Br  0.94444046  0.14163279  0.74555844    -0.03300
C3397       C  0.58471297  0.15077779  0.61363688    -0.09900
C3398       C  0.59835235  0.13618458  0.62067222     0.06300
C3399       C  0.57011429  0.13043693  0.62759128    -0.03700
C3400       C  0.52944567  0.13864819  0.62729719    -0.08100
C3401       C  0.51510149  0.15255564  0.62024111     0.05400
C3402       C  0.54348440  0.15850563  0.61332163    -0.03200
Br3403     Br  0.52771491  0.17458058  0.60313777    -0.02900
H3404       H  0.60596620  0.15572763  0.60828027     0.09300
H3405       H  0.50920857  0.13452652  0.63275436     0.07300
Br3406     Br  0.58573359  0.11467002  0.63784835    -0.03300
C3407       C  0.06154087  0.20184094  0.62489735    -0.09900
C3408       C  0.01915944  0.15582569  0.62710113     0.06300
C3409       C  0.02562270  0.11474444  0.62905908    -0.03700
C3410       C  0.07326101  0.11964355  0.62835959    -0.08100
C3411       C  0.11487403  0.16467128  0.62568188     0.05400
C3412       C  0.10911496  0.20660830  0.62421370    -0.03200
Br3413     Br  0.16494950  0.27157888  0.62161117    -0.02900
H3414       H  0.05742067  0.23412060  0.62353892     0.09300
H3415       H  0.07744272  0.08734255  0.62961191     0.07300
Br3416     Br  0.97067266  0.04969331  0.63194089    -0.03300
C3417       C  0.85655854  0.37665242  0.62220614    -0.09900
C3418       C  0.80881260  0.33603435  0.62038607     0.06300
C3419       C  0.77037634  0.34541852  0.61794579    -0.03700
C3420       C  0.77975772  0.39496579  0.61776583    -0.08100
C3421       C  0.82723951  0.43557992  0.61985920     0.05400
C3422       C  0.86629100  0.42607132  0.62183459    -0.03200
Br3423     Br  0.93445289  0.47861640  0.62356433    -0.02900
H3424       H  0.88686008  0.36991023  0.62382283     0.09300
H3425       H  0.74933944  0.40160557  0.61618923     0.07300
Br3426     Br  0.70384944  0.29232937  0.61527705    -0.03300
C3427       C  0.82163054  0.91642765  0.63064941    -0.09900
C3428       C  0.82495205  0.93898733  0.62322860     0.06300
C3429       C  0.83594570  0.91910262  0.61649145    -0.03700
C3430       C  0.83915202  0.87546568  0.61718109    -0.08100
C3431       C  0.83348449  0.85161268  0.62452897     0.05400
C3432       C  0.82644373  0.87354354  0.63135968    -0.03200
Br3433     Br  0.82057650  0.84546938  0.64172182    -0.02900
H3434       H  0.81446877  0.93173141  0.63594323     0.09300
H3435       H  0.84640712  0.86007024  0.61190163     0.07300
Br3436     Br  0.85068092  0.95114286  0.60628854    -0.03300
C3437       C  0.84670459  0.18816344  0.66298297    -0.09900
C3438       C  0.82313928  0.14329618  0.65863282     0.06300
C3439       C  0.78892861  0.09821084  0.66256475    -0.03700
C3440       C  0.77763476  0.09939203  0.67059393    -0.08100
C3441       C  0.80039804  0.14474418  0.67489155     0.05400
C3442       C  0.83671520  0.18912491  0.67101967    -0.03200
Br3443     Br  0.87896626  0.25129484  0.67644088    -0.02900
H3444       H  0.87397556  0.22288505  0.66011858     0.09300
H3445       H  0.75132081  0.06454150  0.67352375     0.07300
Br3446     Br  0.75522351  0.03422747  0.65731237    -0.03300
C3447       C  0.68383079  0.02933586  0.58540748    -0.09900
C3448       C  0.68304454  0.06601901  0.59030459     0.06300
C3449       C  0.65393413  0.08775736  0.58781661    -0.03700
C3450       C  0.62683533  0.07248753  0.58073667    -0.08100
C3451       C  0.62757149  0.03589705  0.57584614     0.05400
C3452       C  0.65710427  0.01458480  0.57824539    -0.03200
Br3453     Br  0.66597993  0.96784072  0.57187891    -0.02900
H3454       H  0.70632689  0.01259864  0.58706076     0.09300
H3455       H  0.60445859  0.08936527  0.57908448     0.07300
Br3456     Br  0.64708145  0.13757961  0.59369871    -0.03300
loop_ 
_geom_bond_atom_site_label_1 
_geom_bond_atom_site_label_2 
_geom_bond_distance 
_geom_bond_site_symmetry_2 
_ccdc_geom_bond_type 
Zr1           O2   2.439       .  S
Zr1           O3   2.428       .  S
Zr1           O4   2.424       .  S
Zr1           O7   2.417       .  S
Zr1           O9   2.378       .  S
Zr1          O10   2.381       .  S
Zr1          O11   2.402       .  S
Zr1          O12   2.393       .  S
O2           H58   0.990       .  S
O2           H66   0.990       .  S
O3           C23   1.284       .  A
O4           C25   1.281       .  A
O5          Zr15   2.422       .  S
O5           C24   1.283       .  A
O6          Zr14   2.453       .  S
O6           C25   1.289       .  A
O7           C24   1.282       .  A
O8          Zr16   2.428       .  S
O8           C23   1.282       .  A
O9          Zr14   2.387       .  S
O9          Zr16   2.366       .  S
O10         Zr15   2.383       .  S
O10         Zr16   2.384       .  S
O10          H45   0.966       .  S
O11         Zr14   2.399       .  S
O11         Zr31   2.396       .  S
O11          H48   0.964       .  S
O12         Zr15   2.381       .  S
O12         Zr31   2.381       .  S
Zr13         O38   2.442       .  S
Zr13         O32   2.451       .  S
Zr13         O40   2.464       .  S
Zr13         O28   2.416       .  S
Zr13         O19   2.380       .  S
Zr13         O20   2.425       .  S
Zr13         O21   2.388       .  S
Zr13         O22   2.384       .  S
Zr14         O33   2.437       .  S
Zr14         O26   2.433   1_545  S
Zr14         O27   2.439   1_545  S
Zr14         O20   2.400       .  S
Zr14         O21   2.397       .  S
Zr15         O17   2.436       .  S
Zr15         O39   2.438       .  S
Zr15         O41   2.423       .  S
Zr15         O19   2.378       .  S
Zr15         O22   2.386       .  S
Zr16         O42   2.436       .  S
Zr16         O43   2.437       .  S
Zr16         O18   2.437       .  S
Zr16         O19   2.376       .  S
Zr16         O20   2.409       .  S
O17          H54   0.990       .  S
O18          H49   0.990       .  S
O18          H63   0.990       .  S
O20          H46   0.966       .  S
O21         Zr31   2.376       .  S
O22         Zr31   2.397       .  S
O22          H47   0.965       .  S
C23        C3398   1.484       .  S
C24        C3418   1.469       .  S
C25        C3448   1.498       .  S
O26          H62   0.990       .  S
O27          C29   1.286       .  A
O28          C29   1.280   1_545  A
C29        C3428   1.483       .  S
O30         Zr31   2.439       .  S
O30          H59   0.990       .  S
Zr31         O34   2.437       .  S
Zr31         O35   2.440       .  S
Zr31         O36   2.397       .  S
O32          C37   1.286       .  A
O33          H50   0.990       .  S
O33          H65   0.990       .  S
O34          H51   0.990       .  S
O35          H55   0.991       .  S
O35          H64   0.989       .  S
O36          C37   1.277       .  A
C37        C3408   1.476   1_655  S
O38          H57   0.989       .  S
O38          H61   0.991       .  S
O39          H53   0.990       .  S
O39          H60   0.990       .  S
O40          C44   1.289       .  A
O41          C44   1.283       .  A
O42          H52   0.990       .  S
O43          H56   0.990       .  S
C44        C3438   1.484       .  S
Zr67         O68   2.443       .  S
Zr67         O69   2.478       .  S
Zr67         O70   2.473       .  S
Zr67         O73   2.425       .  S
Zr67         O75   2.380       .  S
Zr67         O76   2.386       .  S
Zr67         O77   2.420       .  S
Zr67         O78   2.431       .  S
O68         H124   0.990       .  S
O68         H132   0.989       .  S
O69          C89   1.290       .  A
O70          C91   1.291       .  A
O71         Zr81   2.438       .  S
O71          C90   1.285       .  A
O72         Zr80   2.433       .  S
O72          C91   1.283       .  A
O73          C90   1.282       .  A
O74         Zr82   2.394       .  S
O74          C89   1.276       .  A
O75         Zr80   2.399       .  S
O75         Zr82   2.394       .  S
O76         Zr81   2.399       .  S
O76         Zr82   2.374       .  S
O76         H111   0.967       .  S
O77         Zr80   2.402       .  S
O77         Zr97   2.372       .  S
O77         H114   0.962       .  S
O78         Zr81   2.399       .  S
O78         Zr97   2.414       .  S
Zr79        O104   2.437       .  S
Zr79         O98   2.416       .  S
Zr79        O106   2.432       .  S
Zr79         O94   2.431       .  S
Zr79         O85   2.395       .  S
Zr79         O86   2.400       .  S
Zr79         O87   2.377       .  S
Zr79         O88   2.383       .  S
Zr80         O99   2.440       .  S
Zr80         O92   2.434       .  S
Zr80         O93   2.427       .  S
Zr80         O86   2.393       .  S
Zr80         O87   2.386       .  S
Zr81         O83   2.434       .  S
Zr81        O105   2.436       .  S
Zr81        O107   2.454       .  S
Zr81         O85   2.395       .  S
Zr81         O88   2.385       .  S
Zr82        O108   2.434       .  S
Zr82        O109   2.436       .  S
Zr82         O84   2.438       .  S
Zr82         O85   2.394       .  S
Zr82         O86   2.382       .  S
O83         H120   0.990       .  S
O84         H115   0.991       .  S
O84         H129   0.990       .  S
O86         H112   0.965       .  S
O87         Zr97   2.368       .  S
O88         Zr97   2.357       .  S
O88         H113   0.966       .  S
C89        C3378   1.484       .  S
C90        C3358   1.472       .  S
C91        C3441   1.486       .  S
O92         H128   0.990       .  S
O93          C95   1.286       .  A
O94          C95   1.285       .  A
C95        C3351   1.480   1_545  S
O96         Zr97   2.439       .  S
O96         H125   0.990   1_655  S
Zr97        O100   2.439       .  S
Zr97        O101   2.440   1_655  S
Zr97        O102   2.439       .  S
O98         C103   1.281       .  A
O99         H116   0.990       .  S
O99         H131   0.991       .  S
O100        H117   0.990       .  S
O101        H121   0.990       .  S
O101        H130   0.990       .  S
O102        C103   1.285       .  A
C103       C3368   1.473   1_655  S
O104        H123   0.990       .  S
O104        H127   0.990       .  S
O105        H119   0.990       .  S
O105        H126   0.990       .  S
O106        C110   1.284       .  A
O107        C110   1.290       .  A
O108        H118   0.990       .  S
O109        H122   0.990       .  S
C110       C3388   1.501       .  S
Zr133       O134   2.439       .  S
Zr133       O135   2.407       .  S
Zr133       O136   2.436       .  S
Zr133       O139   2.425       .  S
Zr133       O141   2.379       .  S
Zr133       O142   2.388       .  S
Zr133       O143   2.397       .  S
Zr133       O144   2.392       .  S
O134        H190   0.990       .  S
O134        H198   0.990       .  S
O135        C155   1.279       .  A
O136        C157   1.285       .  A
O137       Zr147   2.427       .  S
O137        C156   1.283       .  A
O138       Zr146   2.437       .  S
O138        C157   1.286       .  A
O139        C156   1.284       .  A
O140       Zr148   2.435       .  S
O140        C155   1.285       .  A
O141       Zr146   2.393       .  S
O141       Zr148   2.362       .  S
O142       Zr147   2.392       .  S
O142       Zr148   2.379       .  S
O142        H177   0.966       .  S
O143       Zr146   2.402       .  S
O143       Zr163   2.395       .  S
O143        H180   0.966       .  S
O144       Zr147   2.393       .  S
O144       Zr163   2.376       .  S
Zr145       O170   2.443       .  S
Zr145       O164   2.461       .  S
Zr145       O172   2.451       .  S
Zr145       O160   2.414       .  S
Zr145       O151   2.387       .  S
Zr145       O152   2.425       .  S
Zr145       O153   2.377       .  S
Zr145       O154   2.385       .  S
Zr146       O165   2.434       .  S
Zr146       O158   2.432   1_655  S
Zr146       O159   2.449       .  S
Zr146       O152   2.400       .  S
Zr146       O153   2.390       .  S
Zr147       O149   2.436       .  S
Zr147       O171   2.439       .  S
Zr147       O173   2.448       .  S
Zr147       O151   2.370       .  S
Zr147       O154   2.399       .  S
Zr148       O174   2.435       .  S
Zr148       O175   2.435       .  S
Zr148       O150   2.436       .  S
Zr148       O151   2.379       .  S
Zr148       O152   2.411       .  S
O149        H186   0.990       .  S
O150        H181   0.990       .  S
O150        H195   0.990       .  S
O152        H178   0.966       .  S
O153       Zr163   2.383       .  S
O154       Zr163   2.400       .  S
O154        H179   0.965       .  S
C155       C3421   1.474       .  S
C156       C3318   1.471       .  S
C157       C3338   1.484       .  S
O158        H194   0.989       .  S
O159        C161   1.287       .  A
O160        C161   1.278       .  A
C161       C3308   1.481   1_655  S
O162       Zr163   2.440       .  S
O162        H191   0.990       .  S
Zr163       O166   2.438       .  S
Zr163       O167   2.440       .  S
Zr163       O168   2.385       .  S
O164        C169   1.287       .  A
O165        H182   0.990       .  S
O165        H197   0.990       .  S
O166        H183   0.990       .  S
O167        H187   0.990       .  S
O167        H196   0.990       .  S
O168        C169   1.275       .  A
C169       C3431   1.478       .  S
O170        H189   0.990       .  S
O170        H193   0.991       .  S
O171        H185   0.990       .  S
O171        H192   0.990       .  S
O172        C176   1.287       .  A
O173        C176   1.287       .  A
O174        H184   0.990       .  S
O175        H188   0.990       .  S
C176       C3328   1.488       .  S
Zr199       O200   2.441       .  S
Zr199       O201   2.458       .  S
Zr199       O202   2.472       .  S
Zr199       O205   2.429       .  S
Zr199       O207   2.381       .  S
Zr199       O208   2.390       .  S
Zr199       O209   2.410       .  S
Zr199       O210   2.421       .  S
O200        H256   0.990       .  S
O200        H264   0.990       .  S
O201        C221   1.288       .  A
O202        C223   1.289       .  A
O203       Zr213   2.438       .  S
O203        C222   1.286       .  A
O204       Zr212   2.435       .  S
O204        C223   1.285       .  A
O205        C222   1.282       .  A
O206       Zr214   2.400       .  S
O206        C221   1.277       .  A
O207       Zr212   2.394       .  S
O207       Zr214   2.395       .  S
O208       Zr213   2.399       .  S
O208       Zr214   2.378       .  S
O208        H243   0.967       .  S
O209       Zr212   2.400       .  S
O209       Zr229   2.370       .  S
O209        H246   0.962       .  S
O210       Zr213   2.398       .  S
O210       Zr229   2.405       .  S
Zr211       O236   2.439       .  S
Zr211       O230   2.422       .  S
Zr211       O238   2.432       .  S
Zr211       O226   2.444       .  S
Zr211       O217   2.400       .  S
Zr211       O218   2.400       .  S
Zr211       O219   2.378       .  S
Zr211       O220   2.387       .  S
Zr212       O231   2.438       .  S
Zr212       O224   2.434       .  S
Zr212       O225   2.419       .  S
Zr212       O218   2.396       .  S
Zr212       O219   2.387       .  S
Zr213       O215   2.435       .  S
Zr213       O237   2.436       .  S
Zr213       O239   2.462       .  S
Zr213       O217   2.390       .  S
Zr213       O220   2.388       .  S
Zr214       O240   2.435       .  S
Zr214       O241   2.437       .  S
Zr214       O216   2.437       .  S
Zr214       O217   2.395       .  S
Zr214       O218   2.377       .  S
O215        H252   0.990       .  S
O216        H247   0.990       .  S
O216        H261   0.990       .  S
O218        H244   0.965       .  S
O219       Zr229   2.370       .  S
O220       Zr229   2.356       .  S
O220        H245   0.965       .  S
C221       C3361   1.476       .  S
C222       C3281   1.486       .  S
C223       C3331   1.487       .  S
O224        H260   0.990       .  S
O225        C227   1.284       .  A
O226        C227   1.288       .  A
C227       C3288   1.481   1_655  S
O228       Zr229   2.439       .  S
O228        H257   0.990       .  S
Zr229       O232   2.438       .  S
Zr229       O233   2.439       .  S
Zr229       O234   2.427       .  S
O230        C235   1.283       .  A
O231        H248   0.990       .  S
O231        H263   0.990       .  S
O232        H249   0.990       .  S
O233        H253   0.990       .  S
O233        H262   0.990       .  S
O234        C235   1.282       .  A
C235       C3348   1.485       .  S
O236        H255   0.990       .  S
O236        H259   0.990       .  S
O237        H251   0.990       .  S
O237        H258   0.990       .  S
O238        C242   1.285       .  A
O239        C242   1.291       .  A
O240        H250   0.990       .  S
O241        H254   0.990       .  S
C242       C3298   1.485       .  S
Zr265       O266   2.437       .  S
Zr265       O267   2.411       .  S
Zr265       O268   2.437       .  S
Zr265       O271   2.445       .  S
Zr265       O273   2.385       .  S
Zr265       O274   2.383       .  S
Zr265       O275   2.398       .  S
Zr265       O276   2.391       .  S
O266        H322   0.990       .  S
O266        H330   0.990       .  S
O267        C287   1.279       .  A
O268        C289   1.285       .  A
O269       Zr279   2.410       .  S
O269        C288   1.282       .  A
O270       Zr278   2.443       .  S
O270        C289   1.287       .  A
O271        C288   1.287       .  A
O272       Zr280   2.439       .  S
O272        C287   1.286       .  A
O273       Zr278   2.392       .  S
O273       Zr280   2.360       .  S
O274       Zr279   2.385       .  S
O274       Zr280   2.375       .  S
O274        H309   0.965       .  S
O275       Zr278   2.403       .  S
O275       Zr295   2.391       .  S
O275        H312   0.965       .  S
O276       Zr279   2.396       .  S
O276       Zr295   2.380       .  S
Zr277       O302   2.443       .  S
Zr277       O296   2.481       .  S
Zr277       O304   2.451       .  S
Zr277       O292   2.413       .  S
Zr277       O283   2.389       .  S
Zr277       O284   2.434       .  S
Zr277       O285   2.380       .  S
Zr277       O286   2.379       .  S
Zr278       O297   2.435       .  S
Zr278       O290   2.433       .  S
Zr278       O291   2.445       .  S
Zr278       O284   2.399       .  S
Zr278       O285   2.396       .  S
Zr279       O281   2.436       .  S
Zr279       O303   2.442       .  S
Zr279       O305   2.436       .  S
Zr279       O283   2.369       .  S
Zr279       O286   2.390       .  S
Zr280       O306   2.435       .  S
Zr280       O307   2.437       .  S
Zr280       O282   2.438       .  S
Zr280       O283   2.383       .  S
Zr280       O284   2.416       .  S
O281        H318   0.990       .  S
O282        H313   0.990       .  S
O282        H327   0.990       .  S
O284        H310   0.964       .  S
O285       Zr295   2.381       .  S
O286       Zr295   2.399       .  S
O286        H311   0.965       .  S
C287       C3321   1.478       .  S
C288       C3401   1.490       .  S
C289       C3268   1.492       .  S
O290        H326   0.990       .  S
O291        C293   1.286       .  A
O292        C293   1.278       .  A
C293       C3411   1.474       .  S
O294       Zr295   2.438       .  S
O294        H323   0.990       .  S
Zr295       O298   2.439       .  S
Zr295       O299   2.440       .  S
Zr295       O300   2.380       .  S
O296        C301   1.291   1_545  A
O297        H314   0.990       .  S
O297        H329   0.990       .  S
O298        H315   0.990       .  S
O299        H319   0.990   1_545  S
O299        H328   0.989       .  S
O300        C301   1.274   1_545  A
C301       C3311   1.490       .  S
O302        H321   0.990       .  S
O302        H325   0.989       .  S
O303        H317   0.990       .  S
O303        H324   0.990       .  S
O304        C308   1.286       .  A
O305        C308   1.286       .  A
O306        H316   0.990       .  S
O307        H320   0.990       .  S
C308       C3258   1.485       .  S
Zr331       O332   2.442       .  S
Zr331       O333   2.465       .  S
Zr331       O334   2.460       .  S
Zr331       O337   2.428       .  S
Zr331       O339   2.381       .  S
Zr331       O340   2.384       .  S
Zr331       O341   2.416       .  S
Zr331       O342   2.422       .  S
O332        H388   0.990       .  S
O332        H396   0.989       .  S
O333        C353   1.289       .  A
O334        C355   1.288       .  A
O335       Zr345   2.444       .  S
O335        C354   1.287       .  A
O336       Zr344   2.432       .  S
O336        C355   1.284       .  A
O337        C354   1.282       .  A
O338       Zr346   2.389       .  S
O338        C353   1.274       .  A
O339       Zr344   2.400       .  S
O339       Zr346   2.395       .  S
O340       Zr345   2.394       .  S
O340       Zr346   2.381       .  S
O340        H375   0.966       .  S
O341       Zr344   2.399       .  S
O341       Zr361   2.371       .  S
O341        H378   0.962       .  S
O342       Zr345   2.393       .  S
O342       Zr361   2.410       .  S
Zr343       O368   2.440       .  S
Zr343       O362   2.407       .  S
Zr343       O370   2.440       .  S
Zr343       O358   2.443       .  S
Zr343       O349   2.397       .  S
Zr343       O350   2.398       .  S
Zr343       O351   2.379       .  S
Zr343       O352   2.388       .  S
Zr344       O363   2.437       .  S
Zr344       O356   2.434       .  S
Zr344       O357   2.431       .  S
Zr344       O350   2.399       .  S
Zr344       O351   2.382       .  S
Zr345       O347   2.434       .  S
Zr345       O369   2.436       .  S
Zr345       O371   2.452       .  S
Zr345       O349   2.399       .  S
Zr345       O352   2.389       .  S
Zr346       O372   2.436       .  S
Zr346       O373   2.438       .  S
Zr346       O348   2.438       .  S
Zr346       O349   2.398       .  S
Zr346       O350   2.372       .  S
O347        H384   0.990       .  S
O348        H379   0.990       .  S
O348        H393   0.990       .  S
O350        H376   0.964       .  S
O351       Zr361   2.369       .  S
O352       Zr361   2.356       .  S
O352        H377   0.965       .  S
C353       C3278   1.489       .  S
C354       C3381   1.486       .  S
C355       C3261   1.482       .  S
O356        H392   0.990       .  S
O357        C359   1.285       .  A
O358        C359   1.288       .  A
C359       C3371   1.478       .  S
O360       Zr361   2.440       .  S
O360        H389   0.990   1_545  S
Zr361       O364   2.438       .  S
Zr361       O365   2.441   1_545  S
Zr361       O366   2.441   1_545  S
O362        C367   1.280   1_545  A
O363        H380   0.990       .  S
O363        H395   0.990       .  S
O364        H381   0.990   1_545  S
O365        H385   0.990       .  S
O365        H394   0.990       .  S
O366        C367   1.286       .  A
C367       C3291   1.472       .  S
O368        H387   0.990       .  S
O368        H391   0.990       .  S
O369        H383   0.990       .  S
O369        H390   0.990       .  S
O370        C374   1.288       .  A
O371        C374   1.288       .  A
O372        H382   0.990       .  S
O373        H386   0.990       .  S
C374       C3251   1.484       .  S
Zr397       O398   2.438       .  S
Zr397       O399   2.414       .  S
Zr397       O400   2.446       .  S
Zr397       O403   2.429       .  S
Zr397       O405   2.378       .  S
Zr397       O406   2.387       .  S
Zr397       O407   2.395       .  S
Zr397       O408   2.394       .  S
O398        H454   0.990       .  S
O398        H462   0.990       .  S
O399        C419   1.281       .  A
O400        C421   1.286       .  A
O401       Zr411   2.414       .  S
O401        C420   1.281       .  A
O402       Zr410   2.454       .  S
O402        C421   1.289       .  A
O403        C420   1.285       .  A
O404       Zr412   2.433       .  S
O404        C419   1.284       .  A
O405       Zr410   2.386       .  S
O405       Zr412   2.364       .  S
O406       Zr411   2.397       .  S
O406       Zr412   2.383       .  S
O406        H441   0.966       .  S
O407       Zr410   2.396       .  S
O407       Zr427   2.398       .  S
O407        H444   0.965       .  S
O408       Zr411   2.387       .  S
O408       Zr427   2.376       .  S
Zr409       O434   2.439       .  S
Zr409       O428   2.466       .  S
Zr409       O436   2.480       .  S
Zr409       O424   2.418       .  S
Zr409       O415   2.379       .  S
Zr409       O416   2.428       .  S
Zr409       O417   2.386       .  S
Zr409       O418   2.384       .  S
Zr410       O429   2.437       .  S
Zr410       O422   2.434       .  S
Zr410       O423   2.426       .  S
Zr410       O416   2.408       .  S
Zr410       O417   2.392       .  S
Zr411       O413   2.437       .  S
Zr411       O435   2.439       .  S
Zr411       O437   2.430       .  S
Zr411       O415   2.373       .  S
Zr411       O418   2.391       .  S
Zr412       O438   2.435       .  S
Zr412       O439   2.436       .  S
Zr412       O414   2.437       .  S
Zr412       O415   2.377       .  S
Zr412       O416   2.409       .  S
O413        H450   0.990       .  S
O414        H445   0.990       .  S
O414        H459   0.990       .  S
O416        H442   0.967       .  S
O417       Zr427   2.373       .  S
O418       Zr427   2.399       .  S
O418        H443   0.965       .  S
C419       C3218   1.488       .  S
C420       C3241   1.467       .  S
C421       C3188   1.505       .  S
O422        H458   0.990       .  S
O423        C425   1.282       .  A
O424        C425   1.280       .  A
C425       C3231   1.485       .  S
O426       Zr427   2.438       .  S
O426        H455   0.990       .  S
Zr427       O430   2.438       .  S
Zr427       O431   2.439       .  S
Zr427       O432   2.385       .  S
O428        C433   1.288       .  A
O429        H446   0.990       .  S
O429        H461   0.989       .  S
O430        H447   0.990       .  S
O431        H451   0.990       .  S
O431        H460   0.990       .  S
O432        C433   1.275       .  A
C433       C3208   1.480   1_455  S
O434        H453   0.991       .  S
O434        H457   0.990       .  S
O435        H449   0.990       .  S
O435        H456   0.990       .  S
O436        C440   1.293       .  A
O437        C440   1.285       .  A
O438        H448   0.990       .  S
O439        H452   0.990       .  S
C440       C3198   1.497       .  S
Zr463       O464   2.440       .  S
Zr463       O465   2.455       .  S
Zr463       O466   2.481       .  S
Zr463       O469   2.431       .  S
Zr463       O471   2.380       .  S
Zr463       O472   2.394       .  S
Zr463       O473   2.405       .  S
Zr463       O474   2.416       .  S
O464        H520   0.990       .  S
O464        H528   0.990       .  S
O465        C485   1.288       .  A
O466        C487   1.292       .  A
O467       Zr477   2.449       .  S
O467        C486   1.288       .  A
O468       Zr476   2.415       .  S
O468        C487   1.282       .  A
O469        C486   1.283       .  A
O470       Zr478   2.398       .  S
O470        C485   1.276       .  A
O471       Zr476   2.394       .  S
O471       Zr478   2.391       .  S
O472       Zr477   2.397       .  S
O472       Zr478   2.373       .  S
O472        H507   0.966       .  S
O473       Zr476   2.399       .  S
O473       Zr493   2.375       .  S
O473        H510   0.963       .  S
O474       Zr477   2.400       .  S
O474       Zr493   2.397       .  S
Zr475       O500   2.443       .  S
Zr475       O494   2.420       .  S
Zr475       O502   2.428       .  S
Zr475       O490   2.449       .  S
Zr475       O481   2.403       .  S
Zr475       O482   2.396       .  S
Zr475       O483   2.376       .  S
Zr475       O484   2.387       .  S
Zr476       O495   2.435       .  S
Zr476       O488   2.435       .  S
Zr476       O489   2.408       .  S
Zr476       O482   2.396       .  S
Zr476       O483   2.385       .  S
Zr477       O479   2.434       .  S
Zr477       O501   2.437       .  S
Zr477       O503   2.467       .  S
Zr477       O481   2.394       .  S
Zr477       O484   2.392       .  S
Zr478       O504   2.436       .  S
Zr478       O505   2.436       .  S
Zr478       O480   2.439       .  S
Zr478       O481   2.394       .  S
Zr478       O482   2.375       .  S
O479        H516   0.990       .  S
O480        H511   0.989       .  S
O480        H525   0.990       .  S
O482        H508   0.966       .  S
O483       Zr493   2.377       .  S
O484       Zr493   2.359       .  S
O484        H509   0.965       .  S
C485       C3168   1.488       .  S
C486       C3161   1.480       .  S
C487       C3201   1.494       .  S
O488        H524   0.990       .  S
O489        C491   1.281       .  A
O490        C491   1.287       .  A
C491       C3151   1.470       .  S
O492       Zr493   2.439       .  S
O492        H521   0.990       .  S
Zr493       O496   2.438       .  S
Zr493       O497   2.440   1_455  S
Zr493       O498   2.424       .  S
O494        C499   1.283   1_455  A
O495        H512   0.990       .  S
O495        H527   0.990       .  S
O496        H513   0.990   1_455  S
O497        H517   0.990       .  S
O497        H526   0.990   1_655  S
O498        C499   1.282   1_455  A
C499       C3181   1.479       .  S
O500        H519   0.990       .  S
O500        H523   0.990       .  S
O501        H515   0.990       .  S
O501        H522   0.990       .  S
O502        C506   1.286       .  A
O503        C506   1.290       .  A
O504        H514   0.990       .  S
O505        H518   0.990       .  S
C506       C3391   1.505       .  S
Zr529       O530   2.441       .  S
Zr529       O531   2.417       .  S
Zr529       O532   2.449       .  S
Zr529       O535   2.439       .  S
Zr529       O537   2.381       .  S
Zr529       O538   2.391       .  S
Zr529       O539   2.400       .  S
Zr529       O540   2.394       .  S
O530        H586   0.991       .  S
O530        H594   0.990       .  S
O531        C551   1.282       .  A
O532        C553   1.287       .  A
O533       Zr543   2.416       .  S
O533        C552   1.282       .  A
O534       Zr542   2.442       .  S
O534        C553   1.286       .  A
O535        C552   1.285       .  A
O536       Zr544   2.439       .  S
O536        C551   1.284       .  A
O537       Zr542   2.391       .  S
O537       Zr544   2.363       .  S
O538       Zr543   2.396       .  S
O538       Zr544   2.385       .  S
O538        H573   0.966       .  S
O539       Zr542   2.406       .  S
O539       Zr559   2.401       .  S
O539        H576   0.966       .  S
O540       Zr543   2.393       .  S
O540       Zr559   2.378       .  S
Zr541       O566   2.440       .  S
Zr541       O560   2.470       .  S
Zr541       O568   2.475       .  S
Zr541       O556   2.424       .  S
Zr541       O547   2.388       .  S
Zr541       O548   2.428       .  S
Zr541       O549   2.380       .  S
Zr541       O550   2.383       .  S
Zr542       O561   2.435       .  S
Zr542       O554   2.435   1_565  S
Zr542       O555   2.443       .  S
Zr542       O548   2.393       .  S
Zr542       O549   2.392       .  S
Zr543       O545   2.438       .  S
Zr543       O567   2.440       .  S
Zr543       O569   2.439       .  S
Zr543       O547   2.369       .  S
Zr543       O550   2.398       .  S
Zr544       O570   2.436       .  S
Zr544       O571   2.435       .  S
Zr544       O546   2.436       .  S
Zr544       O547   2.379       .  S
Zr544       O548   2.416       .  S
O545        H582   0.990       .  S
O546        H577   0.990       .  S
O546        H591   0.990       .  S
O548        H574   0.966       .  S
O549       Zr559   2.380       .  S
O550       Zr559   2.402       .  S
O550        H575   0.965       .  S
C551       C3121   1.488       .  S
C552       C3221   1.481       .  S
C553       C3108   1.488       .  S
O554        H590   0.990       .  S
O555        C557   1.286       .  A
O556        C557   1.281       .  A
C557       C3211   1.487   1_565  S
O558       Zr559   2.441       .  S
O558        H587   0.990       .  S
Zr559       O562   2.438       .  S
Zr559       O563   2.440       .  S
Zr559       O564   2.397       .  S
O560        C565   1.289       .  A
O561        H578   0.990       .  S
O561        H593   0.990       .  S
O562        H579   0.990       .  S
O563        H583   0.989       .  S
O563        H592   0.989       .  S
O564        C565   1.276       .  A
C565       C3128   1.485       .  S
O566        H585   0.990       .  S
O566        H589   0.990       .  S
O567        H581   0.990       .  S
O567        H588   0.990       .  S
O568        C572   1.291       .  A
O569        C572   1.286       .  A
O570        H580   0.990       .  S
O571        H584   0.990       .  S
C572       C3138   1.488       .  S
Zr595       O596   2.441       .  S
Zr595       O597   2.464       .  S
Zr595       O598   2.470       .  S
Zr595       O601   2.425       .  S
Zr595       O603   2.380       .  S
Zr595       O604   2.390       .  S
Zr595       O605   2.408       .  S
Zr595       O606   2.421       .  S
O596        H652   0.990       .  S
O596        H660   0.990       .  S
O597        C617   1.290       .  A
O598        C619   1.288       .  A
O599       Zr609   2.425       .  S
O599        C618   1.285       .  A
O600       Zr608   2.438       .  S
O600        C619   1.285       .  A
O601        C618   1.281       .  A
O602       Zr610   2.388       .  S
O602        C617   1.275       .  A
O603       Zr608   2.390       .  S
O603       Zr610   2.397       .  S
O604       Zr609   2.394       .  S
O604       Zr610   2.375       .  S
O604        H639   0.967       .  S
O605       Zr608   2.398       .  S
O605       Zr625   2.369       .  S
O605        H642   0.962       .  S
O606       Zr609   2.392       .  S
O606       Zr625   2.401       .  S
Zr607       O632   2.443       .  S
Zr607       O626   2.417       .  S
Zr607       O634   2.449       .  S
Zr607       O622   2.438       .  S
Zr607       O613   2.398       .  S
Zr607       O614   2.401       .  S
Zr607       O615   2.384       .  S
Zr607       O616   2.384       .  S
Zr608       O627   2.438       .  S
Zr608       O620   2.436       .  S
Zr608       O621   2.412       .  S
Zr608       O614   2.403       .  S
Zr608       O615   2.393       .  S
Zr609       O611   2.434       .  S
Zr609       O633   2.436       .  S
Zr609       O635   2.442       .  S
Zr609       O613   2.392       .  S
Zr609       O616   2.388       .  S
Zr610       O636   2.437       .  S
Zr610       O637   2.437       .  S
Zr610       O612   2.436       .  S
Zr610       O613   2.392       .  S
Zr610       O614   2.373       .  S
O611        H648   0.990       .  S
O612        H643   0.990       .  S
O612        H657   0.990       .  S
O614        H640   0.965       .  S
O615       Zr625   2.371       .  S
O616       Zr625   2.357       .  S
O616        H641   0.965       .  S
C617       C3088   1.479       .  S
C618       C3171   1.484       .  S
C619       C3141   1.487       .  S
O620        H656   0.990       .  S
O621        C623   1.283       .  A
O622        C623   1.286       .  A
C623       C3178   1.474   1_565  S
O624       Zr625   2.439       .  S
O624        H653   0.990       .  S
Zr625       O628   2.439       .  S
Zr625       O629   2.439       .  S
Zr625       O630   2.424       .  S
O626        C631   1.281       .  A
O627        H644   0.990       .  S
O627        H659   0.990       .  S
O628        H645   0.990       .  S
O629        H649   0.990       .  S
O629        H658   0.989       .  S
O630        C631   1.283       .  A
C631       C3098   1.473       .  S
O632        H651   0.990       .  S
O632        H655   0.990       .  S
O633        H647   0.990       .  S
O633        H654   0.990       .  S
O634        C638   1.288       .  A
O635        C638   1.286       .  A
O636        H646   0.990       .  S
O637        H650   0.990       .  S
C638       C3301   1.482       .  S
Zr661       O662   2.440       .  S
Zr661       O663   2.420       .  S
Zr661       O664   2.438       .  S
Zr661       O667   2.443       .  S
Zr661       O669   2.383       .  S
Zr661       O670   2.385       .  S
Zr661       O671   2.404       .  S
Zr661       O672   2.393       .  S
O662        H718   0.991       .  S
O662        H726   0.990       .  S
O663        C683   1.282       .  A
O664        C685   1.286       .  A
O665       Zr675   2.409       .  S
O665        C684   1.279       .  A
O666       Zr674   2.453       .  S
O666        C685   1.288       .  A
O667        C684   1.286       .  A
O668       Zr676   2.424       .  S
O668        C683   1.281       .  A
O669       Zr674   2.393       .  S
O669       Zr676   2.365       .  S
O670       Zr675   2.396       .  S
O670       Zr676   2.391       .  S
O670        H705   0.965       .  S
O671       Zr674   2.404       .  S
O671       Zr691   2.398       .  S
O671        H708   0.964       .  S
O672       Zr675   2.381       .  S
O672       Zr691   2.377       .  S
Zr673       O698   2.443       .  S
Zr673       O692   2.449       .  S
Zr673       O700   2.460       .  S
Zr673       O688   2.421       .  S
Zr673       O679   2.379       .  S
Zr673       O680   2.424       .  S
Zr673       O681   2.382       .  S
Zr673       O682   2.387       .  S
Zr674       O693   2.434       .  S
Zr674       O686   2.433   1_455  S
Zr674       O687   2.446       .  S
Zr674       O680   2.403       .  S
Zr674       O681   2.391       .  S
Zr675       O677   2.437       .  S
Zr675       O699   2.440       .  S
Zr675       O701   2.418       .  S
Zr675       O679   2.369       .  S
Zr675       O682   2.392       .  S
Zr676       O702   2.436       .  S
Zr676       O703   2.436       .  S
Zr676       O678   2.435       .  S
Zr676       O679   2.369       .  S
Zr676       O680   2.409       .  S
O677        H714   0.990       .  S
O678        H709   0.990       .  S
O678        H723   0.990       .  S
O680        H706   0.966       .  S
O681       Zr691   2.377       .  S
O682       Zr691   2.398       .  S
O682        H707   0.966       .  S
C683       C3238   1.476       .  S
C684       C3118   1.480       .  S
C685       C3071   1.503       .  S
O686        H722   0.989       .  S
O687        C689   1.288       .  A
O688        C689   1.279       .  A
C689       C3131   1.479   1_455  S
O690       Zr691   2.440       .  S
O690        H719   0.990       .  S
Zr691       O694   2.437       .  S
Zr691       O695   2.441       .  S
Zr691       O696   2.388       .  S
O692        C697   1.285       .  A
O693        H710   0.990       .  S
O693        H725   0.990       .  S
O694        H711   0.990       .  S
O695        H715   0.990       .  S
O695        H724   0.990       .  S
O696        C697   1.277       .  A
C697       C3228   1.481   1_565  S
O698        H717   0.989       .  S
O698        H721   0.991       .  S
O699        H713   0.990       .  S
O699        H720   0.990       .  S
O700        C704   1.289       .  A
O701        C704   1.281       .  A
O702        H712   0.990       .  S
O703        H716   0.990       .  S
C704       C3081   1.479       .  S
Zr727       O728   2.443       .  S
Zr727       O729   2.466       .  S
Zr727       O730   2.433       .  S
Zr727       O733   2.393       .  S
Zr727       O735   2.370       .  S
Zr727       O736   2.379       .  S
Zr727       O737   2.410       .  S
Zr727       O738   2.421       .  S
O728        H784   0.990       .  S
O728        H792   0.990       .  S
O729        C749   1.288       .  A
O730        C751   1.283       .  A
O731       Zr741   2.453       .  S
O731        C750   1.288       .  A
O732       Zr740   2.430       .  S
O732        C751   1.282       .  A
O733        C750   1.275       .  A
O734       Zr742   2.397       .  S
O734        C749   1.276       .  A
O735       Zr740   2.399       .  S
O735       Zr742   2.390       .  S
O736       Zr741   2.390       .  S
O736       Zr742   2.376       .  S
O736        H771   0.966       .  S
O737       Zr740   2.395       .  S
O737       Zr757   2.387       .  S
O737        H774   0.963       .  S
O738       Zr741   2.396       .  S
O738       Zr757   2.409       .  S
Zr739       O764   2.439       .  S
Zr739       O758   2.402       .  S
Zr739       O766   2.431       .  S
Zr739       O754   2.433       .  S
Zr739       O745   2.396       .  S
Zr739       O746   2.393       .  S
Zr739       O747   2.379       .  S
Zr739       O748   2.388       .  S
Zr740       O759   2.438       .  S
Zr740       O752   2.434       .  S
Zr740       O753   2.429       .  S
Zr740       O746   2.398       .  S
Zr740       O747   2.384       .  S
Zr741       O743   2.436       .  S
Zr741       O765   2.436       .  S
Zr741       O767   2.452       .  S
Zr741       O745   2.402       .  S
Zr741       O748   2.394       .  S
Zr742       O768   2.435       .  S
Zr742       O769   2.435       .  S
Zr742       O744   2.437       .  S
Zr742       O745   2.397       .  S
Zr742       O746   2.376       .  S
O743        H780   0.990       .  S
O744        H775   0.990       .  S
O744        H789   0.990       .  S
O746        H772   0.965       .  S
O747       Zr757   2.370       .  S
O748       Zr757   2.355       .  S
O748        H773   0.965       .  S
C749       C3158   1.474       .  S
C750       C3091   1.473       .  S
C751       C3078   1.481       .  S
O752        H788   0.990       .  S
O753        C755   1.285       .  A
O754        C755   1.286       .  A
C755       C3101   1.481   1_455  S
O756       Zr757   2.440       .  S
O756        H785   0.990   1_565  S
Zr757       O760   2.438       .  S
Zr757       O761   2.440   1_565  S
Zr757       O762   2.448   1_565  S
O758        C763   1.277   1_565  A
O759        H776   0.991       .  S
O759        H791   0.990       .  S
O760        H777   0.990   1_565  S
O761        H781   0.990       .  S
O761        H790   0.990       .  S
O762        C763   1.288       .  A
C763       C3148   1.480       .  S
O764        H783   0.990       .  S
O764        H787   0.990       .  S
O765        H779   0.990       .  S
O765        H786   0.990       .  S
O766        C770   1.285       .  A
O767        C770   1.289       .  A
O768        H778   0.990       .  S
O769        H782   0.990       .  S
C770       C3248   1.487       .  S
Zr793       O794   2.440       .  S
Zr793       O795   2.414       .  S
Zr793       O796   2.433       .  S
Zr793       O799   2.437       .  S
Zr793       O801   2.383       .  S
Zr793       O802   2.389       .  S
Zr793       O803   2.402       .  S
Zr793       O804   2.395       .  S
O794        H850   0.990       .  S
O794        H858   0.990       .  S
O795        C815   1.280       .  A
O796        C817   1.285       .  A
O797       Zr807   2.422       .  S
O797        C816   1.282       .  A
O798       Zr806   2.449       .  S
O798        C817   1.288       .  A
O799        C816   1.285       .  A
O800       Zr808   2.433       .  S
O800        C815   1.284       .  A
O801       Zr806   2.391       .  S
O801       Zr808   2.363       .  S
O802       Zr807   2.393       .  S
O802       Zr808   2.385       .  S
O802        H837   0.965       .  S
O803       Zr806   2.401       .  S
O803       Zr823   2.391       .  S
O803        H840   0.966       .  S
O804       Zr807   2.392       .  S
O804       Zr823   2.385       .  S
Zr805       O830   2.441       .  S
Zr805       O824   2.467       .  S
Zr805       O832   2.458       .  S
Zr805       O820   2.428       .  S
Zr805       O811   2.387       .  S
Zr805       O812   2.429       .  S
Zr805       O813   2.381       .  S
Zr805       O814   2.383       .  S
Zr806       O825   2.435       .  S
Zr806       O818   2.431       .  S
Zr806       O819   2.441       .  S
Zr806       O812   2.401       .  S
Zr806       O813   2.394       .  S
Zr807       O809   2.437       .  S
Zr807       O831   2.439       .  S
Zr807       O833   2.443       .  S
Zr807       O811   2.376       .  S
Zr807       O814   2.391       .  S
Zr808       O834   2.435       .  S
Zr808       O835   2.438       .  S
Zr808       O810   2.438       .  S
Zr808       O811   2.380       .  S
Zr808       O812   2.414       .  S
O809        H846   0.990       .  S
O810        H841   0.990       .  S
O810        H855   0.990       .  S
O812        H838   0.965       .  S
O813       Zr823   2.375       .  S
O814       Zr823   2.399       .  S
O814        H839   0.965       .  S
C815       C3051   1.471       .  S
C816       C3028   1.477       .  S
C817       C3271   1.490       .  S
O818        H854   0.989       .  S
O819        C821   1.286       .  A
O820        C821   1.282       .  A
C821       C3021   1.482       .  S
O822       Zr823   2.438       .  S
O822        H851   0.990       .  S
Zr823       O826   2.437       .  S
Zr823       O827   2.438       .  S
Zr823       O828   2.391       .  S
O824        C829   1.288       .  A
O825        H842   0.990       .  S
O825        H857   0.990       .  S
O826        H843   0.990       .  S
O827        H847   0.990       .  S
O827        H856   0.990       .  S
O828        C829   1.277       .  A
C829       C3041   1.487       .  S
O830        H849   0.991       .  S
O830        H853   0.988       .  S
O831        H845   0.990       .  S
O831        H852   0.990       .  S
O832        C836   1.288       .  A
O833        C836   1.286       .  A
O834        H844   0.990       .  S
O835        H848   0.990       .  S
C836       C3058   1.488       .  S
Zr859       O860   2.444       .  S
Zr859       O861   2.466       .  S
Zr859       O862   2.465       .  S
Zr859       O865   2.426       .  S
Zr859       O867   2.379       .  S
Zr859       O868   2.389       .  S
Zr859       O869   2.417       .  S
Zr859       O870   2.422       .  S
O860        H916   0.991       .  S
O860        H924   0.990       .  S
O861        C881   1.288       .  A
O862        C883   1.288       .  A
O863       Zr873   2.452       .  S
O863        C882   1.289       .  A
O864       Zr872   2.437       .  S
O864        C883   1.284       .  A
O865        C882   1.281       .  A
O866       Zr874   2.382       .  S
O866        C881   1.275       .  A
O867       Zr872   2.399       .  S
O867       Zr874   2.399       .  S
O868       Zr873   2.391       .  S
O868       Zr874   2.378       .  S
O868        H903   0.966       .  S
O869       Zr872   2.393       .  S
O869       Zr889   2.376       .  S
O869        H906   0.962       .  S
O870       Zr873   2.393       .  S
O870       Zr889   2.408       .  S
Zr871       O896   2.442       .  S
Zr871       O890   2.415       .  S
Zr871       O898   2.432       .  S
Zr871       O886   2.445       .  S
Zr871       O877   2.402       .  S
Zr871       O878   2.396       .  S
Zr871       O879   2.378       .  S
Zr871       O880   2.388       .  S
Zr872       O891   2.435       .  S
Zr872       O884   2.435       .  S
Zr872       O885   2.418       .  S
Zr872       O878   2.402       .  S
Zr872       O879   2.387       .  S
Zr873       O875   2.436       .  S
Zr873       O897   2.437       .  S
Zr873       O899   2.443       .  S
Zr873       O877   2.399       .  S
Zr873       O880   2.392       .  S
Zr874       O900   2.437       .  S
Zr874       O901   2.436       .  S
Zr874       O876   2.435       .  S
Zr874       O877   2.389       .  S
Zr874       O878   2.371       .  S
O875        H912   0.990       .  S
O876        H907   0.990       .  S
O876        H921   0.990       .  S
O878        H904   0.965       .  S
O879       Zr889   2.376       .  S
O880       Zr889   2.346       .  S
O880        H905   0.965       .  S
C881       C2991   1.485       .  S
C882       C2971   1.490       .  S
C883       C3061   1.486       .  S
O884        H920   0.990       .  S
O885        C887   1.282       .  A
O886        C887   1.288       .  A
C887       C2978   1.476       .  S
O888       Zr889   2.438       .  S
O888        H917   0.990       .  S
Zr889       O892   2.437       .  S
Zr889       O893   2.442       .  S
Zr889       O894   2.440       .  S
O890        C895   1.280       .  A
O891        H908   0.990       .  S
O891        H923   0.990       .  S
O892        H909   0.990       .  S
O893        H913   0.990       .  S
O893        H922   0.990       .  S
O894        C895   1.286       .  A
C895       C2998   1.478       .  S
O896        H915   0.990       .  S
O896        H919   0.990       .  S
O897        H911   0.990       .  S
O897        H918   0.990       .  S
O898        C902   1.286       .  A
O899        C902   1.288       .  A
O900        H910   0.990       .  S
O901        H914   0.990       .  S
C902       C3008   1.478       .  S
Zr925       O926   2.436       .  S
Zr925       O927   2.413       .  S
Zr925       O928   2.438       .  S
Zr925       O931   2.430       .  S
Zr925       O933   2.378       .  S
Zr925       O934   2.386       .  S
Zr925       O935   2.398   1_545  S
Zr925       O936   2.397       .  S
O926        H982   0.990       .  S
O926        H990   0.990       .  S
O927        C947   1.280       .  A
O928        C949   1.287       .  A
O929       Zr939   2.413       .  S
O929        C948   1.281       .  A
O930       Zr938   2.440       .  S
O930        C949   1.285   1_565  A
O931        C948   1.284       .  A
O932       Zr940   2.439       .  S
O932        C947   1.286       .  A
O933       Zr938   2.387   1_545  S
O933       Zr940   2.362       .  S
O934       Zr939   2.391       .  S
O934       Zr940   2.380       .  S
O934        H969   0.966       .  S
O935       Zr938   2.402       .  S
O935       Zr955   2.396       .  S
O935        H972   0.964       .  S
O936       Zr939   2.386       .  S
O936       Zr955   2.383   1_545  S
Zr937       O962   2.441       .  S
Zr937       O956   2.472       .  S
Zr937       O964   2.472       .  S
Zr937       O952   2.425       .  S
Zr937       O943   2.385       .  S
Zr937       O944   2.427       .  S
Zr937       O945   2.382       .  S
Zr937       O946   2.383       .  S
Zr938       O957   2.435       .  S
Zr938       O950   2.432       .  S
Zr938       O951   2.437       .  S
Zr938       O944   2.400       .  S
Zr938       O945   2.393       .  S
Zr939       O941   2.436       .  S
Zr939       O963   2.439       .  S
Zr939       O965   2.434       .  S
Zr939       O943   2.371   1_545  S
Zr939       O946   2.390   1_545  S
Zr940       O966   2.436       .  S
Zr940       O967   2.436       .  S
Zr940       O942   2.437       .  S
Zr940       O943   2.380   1_545  S
Zr940       O944   2.414   1_545  S
O941        H978   0.990       .  S
O942        H973   0.990       .  S
O942        H987   0.990       .  S
O944        H970   0.967       .  S
O945       Zr955   2.377       .  S
O946       Zr955   2.400       .  S
O946        H971   0.964       .  S
C947       C2958   1.475       .  S
C948       C3048   1.475       .  S
C949       C3451   1.495       .  S
O950        H986   0.990       .  S
O951        C953   1.285       .  A
O952        C953   1.281       .  A
C953       C3038   1.482       .  S
O954       Zr955   2.440       .  S
O954        H983   0.990       .  S
Zr955       O958   2.438       .  S
Zr955       O959   2.440       .  S
Zr955       O960   2.397       .  S
O956        C961   1.290       .  A
O957        H974   0.990       .  S
O957        H989   0.990       .  S
O958        H975   0.990       .  S
O959        H979   0.991       .  S
O959        H988   0.989       .  S
O960        C961   1.277       .  A
C961       C2948   1.480       .  S
O962        H981   0.990       .  S
O962        H985   0.991       .  S
O963        H977   0.990       .  S
O963        H984   0.990       .  S
O964        C968   1.292       .  A
O965        C968   1.284   1_545  A
O966        H976   0.990       .  S
O967        H980   0.990   1_545  S
C968       C2938   1.493       .  S
Zr991       O992   2.443       .  S
Zr991       O993   2.467       .  S
Zr991       O994   2.466       .  S
Zr991       O997   2.417       .  S
Zr991       O999   2.377       .  S
Zr991      O1000   2.391       .  S
Zr991      O1001   2.412   1_545  S
Zr991      O1002   2.422       .  S
O992       H1048   0.990       .  S
O992       H1056   0.991       .  S
O993       C1013   1.288       .  A
O994       C1015   1.290       .  A
O995      Zr1005   2.444       .  S
O995       C1014   1.287       .  A
O996      Zr1004   2.440       .  S
O996       C1015   1.285   1_565  A
O997       C1014   1.281       .  A
O998      Zr1006   2.389       .  S
O998       C1013   1.276       .  A
O999      Zr1004   2.393   1_545  S
O999      Zr1006   2.394       .  S
O1000     Zr1005   2.397       .  S
O1000     Zr1006   2.375       .  S
O1000      H1035   0.967       .  S
O1001     Zr1004   2.401       .  S
O1001     Zr1021   2.375       .  S
O1001      H1038   0.963       .  S
O1002     Zr1005   2.399       .  S
O1002     Zr1021   2.406   1_545  S
Zr1003     O1028   2.441       .  S
Zr1003     O1022   2.424       .  S
Zr1003     O1030   2.437       .  S
Zr1003     O1018   2.438       .  S
Zr1003     O1009   2.400       .  S
Zr1003     O1010   2.402       .  S
Zr1003     O1011   2.377       .  S
Zr1003     O1012   2.384       .  S
Zr1004     O1023   2.437       .  S
Zr1004     O1016   2.434       .  S
Zr1004     O1017   2.420       .  S
Zr1004     O1010   2.402       .  S
Zr1004     O1011   2.391       .  S
Zr1005     O1007   2.434       .  S
Zr1005     O1029   2.436       .  S
Zr1005     O1031   2.451   1_545  S
Zr1005     O1009   2.394   1_545  S
Zr1005     O1012   2.393   1_545  S
Zr1006     O1032   2.436       .  S
Zr1006     O1033   2.436       .  S
Zr1006     O1008   2.437       .  S
Zr1006     O1009   2.393   1_545  S
Zr1006     O1010   2.375   1_545  S
O1007      H1044   0.990       .  S
O1008      H1039   0.990       .  S
O1008      H1053   0.990       .  S
O1010      H1036   0.965       .  S
O1011     Zr1021   2.369       .  S
O1012     Zr1021   2.356       .  S
O1012      H1037   0.966       .  S
C1013      C2921   1.485       .  S
C1014      C2988   1.480       .  S
C1015      C2941   1.493       .  S
O1016      H1052   0.990       .  S
O1017      C1019   1.283       .  A
O1018      C1019   1.286       .  A
C1019      C3001   1.468       .  S
O1020     Zr1021   2.438       .  S
O1020      H1049   0.991       .  S
Zr1021     O1024   2.437       .  S
Zr1021     O1025   2.438       .  S
Zr1021     O1026   2.440       .  S
O1022      C1027   1.282       .  A
O1023      H1040   0.990       .  S
O1023      H1055   0.990       .  S
O1024      H1041   0.990       .  S
O1025      H1045   0.990       .  S
O1025      H1054   0.990       .  S
O1026      C1027   1.287       .  A
C1027      C2911   1.484       .  S
O1028      H1047   0.990       .  S
O1028      H1051   0.990       .  S
O1029      H1043   0.990       .  S
O1029      H1050   0.990       .  S
O1030      C1034   1.287       .  A
O1031      C1034   1.288       .  A
O1032      H1042   0.990       .  S
O1033      H1046   0.990   1_545  S
C1034      C2928   1.485       .  S
Zr1057     O1058   2.439       .  S
Zr1057     O1059   2.413       .  S
Zr1057     O1060   2.424       .  S
Zr1057     O1063   2.431       .  S
Zr1057     O1065   2.384       .  S
Zr1057     O1066   2.383       .  S
Zr1057     O1067   2.402       .  S
Zr1057     O1068   2.389       .  S
O1058      H1114   0.990       .  S
O1058      H1122   0.990       .  S
O1059      C1079   1.281       .  A
O1060      C1081   1.283       .  A
O1061     Zr1071   2.420       .  S
O1061      C1080   1.282       .  A
O1062     Zr1070   2.451   1_655  S
O1062      C1081   1.288       .  A
O1063      C1080   1.284       .  A
O1064     Zr1072   2.445       .  S
O1064      C1079   1.287       .  A
O1065     Zr1070   2.392   1_655  S
O1065     Zr1072   2.364       .  S
O1066     Zr1071   2.387       .  S
O1066     Zr1072   2.381       .  S
O1066      H1101   0.966       .  S
O1067     Zr1070   2.402   1_655  S
O1067     Zr1087   2.393   1_655  S
O1067      H1104   0.964       .  S
O1068     Zr1071   2.388       .  S
O1068     Zr1087   2.379   1_655  S
Zr1069     O1094   2.442       .  S
Zr1069     O1088   2.464       .  S
Zr1069     O1096   2.467       .  S
Zr1069     O1084   2.425       .  S
Zr1069     O1075   2.390   1_455  S
Zr1069     O1076   2.424       .  S
Zr1069     O1077   2.382       .  S
Zr1069     O1078   2.385       .  S
Zr1070     O1089   2.436       .  S
Zr1070     O1082   2.436       .  S
Zr1070     O1083   2.452       .  S
Zr1070     O1076   2.396       .  S
Zr1070     O1077   2.391       .  S
Zr1071     O1073   2.437       .  S
Zr1071     O1095   2.440       .  S
Zr1071     O1097   2.430       .  S
Zr1071     O1075   2.381       .  S
Zr1071     O1078   2.394   1_655  S
Zr1072     O1098   2.436       .  S
Zr1072     O1099   2.436       .  S
Zr1072     O1074   2.436       .  S
Zr1072     O1075   2.385       .  S
Zr1072     O1076   2.411   1_655  S
O1073      H1110   0.990       .  S
O1074      H1105   0.990       .  S
O1074      H1119   0.990       .  S
O1076      H1102   0.966       .  S
O1077     Zr1087   2.376       .  S
O1078     Zr1087   2.397       .  S
O1078      H1103   0.965       .  S
C1079      C3031   1.482       .  S
C1080      C2961   1.471       .  S
C1081      C3341   1.482       .  S
O1082      H1118   0.990       .  S
O1083      C1085   1.289       .  A
O1084      C1085   1.281       .  A
C1085      C2951   1.484       .  S
O1086     Zr1087   2.439   1_655  S
O1086      H1115   0.990   1_655  S
Zr1087     O1090   2.438       .  S
Zr1087     O1091   2.439       .  S
Zr1087     O1092   2.385       .  S
O1088      C1093   1.288       .  A
O1089      H1106   0.990       .  S
O1089      H1121   0.990       .  S
O1090      H1107   0.990       .  S
O1091      H1111   0.990       .  S
O1091      H1120   0.990   1_455  S
O1092      C1093   1.276       .  A
C1093      C3018   1.480       .  S
O1094      H1113   0.990       .  S
O1094      H1117   0.991       .  S
O1095      H1109   0.990       .  S
O1095      H1116   0.990       .  S
O1096      C1100   1.290   1_455  A
O1097      C1100   1.283       .  A
O1098      H1108   0.990       .  S
O1099      H1112   0.990       .  S
C1100      C2898   1.492       .  S
Zr1123     O1124   2.444       .  S
Zr1123     O1125   2.468       .  S
Zr1123     O1126   2.456       .  S
Zr1123     O1129   2.403       .  S
Zr1123     O1131   2.379       .  S
Zr1123     O1132   2.388       .  S
Zr1123     O1133   2.410       .  S
Zr1123     O1134   2.423       .  S
O1124      H1180   0.990       .  S
O1124      H1188   0.991       .  S
O1125      C1145   1.288       .  A
O1126      C1147   1.287       .  A
O1127     Zr1137   2.451       .  S
O1127      C1146   1.288       .  A
O1128     Zr1136   2.441       .  S
O1128      C1147   1.285   1_455  A
O1129      C1146   1.278       .  A
O1130     Zr1138   2.402       .  S
O1130      C1145   1.277       .  A
O1131     Zr1136   2.402   1_655  S
O1131     Zr1138   2.396       .  S
O1132     Zr1137   2.387       .  S
O1132     Zr1138   2.381       .  S
O1132      H1167   0.966       .  S
O1133     Zr1136   2.395   1_655  S
O1133     Zr1153   2.379   1_655  S
O1133      H1170   0.963       .  S
O1134     Zr1137   2.394       .  S
O1134     Zr1153   2.403   1_655  S
Zr1135     O1160   2.442       .  S
Zr1135     O1154   2.408       .  S
Zr1135     O1162   2.444       .  S
Zr1135     O1150   2.454       .  S
Zr1135     O1141   2.402   1_455  S
Zr1135     O1142   2.401       .  S
Zr1135     O1143   2.379       .  S
Zr1135     O1144   2.389       .  S
Zr1136     O1155   2.437       .  S
Zr1136     O1148   2.434       .  S
Zr1136     O1149   2.428       .  S
Zr1136     O1142   2.403       .  S
Zr1136     O1143   2.384       .  S
Zr1137     O1139   2.434       .  S
Zr1137     O1161   2.436       .  S
Zr1137     O1163   2.447       .  S
Zr1137     O1141   2.397       .  S
Zr1137     O1144   2.394   1_655  S
Zr1138     O1164   2.435       .  S
Zr1138     O1165   2.437       .  S
Zr1138     O1140   2.437       .  S
Zr1138     O1141   2.400       .  S
Zr1138     O1142   2.382   1_655  S
O1139      H1176   0.990       .  S
O1140      H1171   0.990       .  S
O1140      H1185   0.990       .  S
O1142      H1168   0.964       .  S
O1143     Zr1153   2.372       .  S
O1144     Zr1153   2.357       .  S
O1144      H1169   0.964       .  S
C1145      C2968   1.480       .  S
C1146      C2918   1.476       .  S
C1147      C2901   1.491       .  S
O1148      H1184   0.990       .  S
O1149      C1151   1.284       .  A
O1150      C1151   1.290       .  A
C1151      C2908   1.490       .  S
O1152     Zr1153   2.440   1_655  S
O1152      H1181   0.990   1_655  S
Zr1153     O1156   2.438       .  S
Zr1153     O1157   2.441       .  S
Zr1153     O1158   2.439       .  S
O1154      C1159   1.279       .  A
O1155      H1172   0.990       .  S
O1155      H1187   0.990       .  S
O1156      H1173   0.990       .  S
O1157      H1177   0.990       .  S
O1157      H1186   0.990   1_455  S
O1158      C1159   1.286       .  A
C1159      C2981   1.469       .  S
O1160      H1179   0.990       .  S
O1160      H1183   0.990       .  S
O1161      H1175   0.990       .  S
O1161      H1182   0.990       .  S
O1162      C1166   1.288       .  A
O1163      C1166   1.287   1_655  A
O1164      H1174   0.990       .  S
O1165      H1178   0.990   1_655  S
C1166      C2891   1.484       .  S
Zr1189     O1190   2.438       .  S
Zr1189     O1191   2.424       .  S
Zr1189     O1192   2.429       .  S
Zr1189     O1195   2.425       .  S
Zr1189     O1197   2.377       .  S
Zr1189     O1198   2.384       .  S
Zr1189     O1199   2.401       .  S
Zr1189     O1200   2.397       .  S
O1190      H1246   0.990       .  S
O1190      H1254   0.990       .  S
O1191      C1211   1.282       .  A
O1192      C1213   1.284       .  A
O1193     Zr1203   2.417       .  S
O1193      C1212   1.282       .  A
O1194     Zr1202   2.462       .  S
O1194      C1213   1.290       .  A
O1195      C1212   1.283       .  A
O1196     Zr1204   2.434       .  S
O1196      C1211   1.285       .  A
O1197     Zr1202   2.389       .  S
O1197     Zr1204   2.365       .  S
O1198     Zr1203   2.384       .  S
O1198     Zr1204   2.379       .  S
O1198      H1233   0.965       .  S
O1199     Zr1202   2.396       .  S
O1199     Zr1219   2.397       .  S
O1199      H1236   0.966       .  S
O1200     Zr1203   2.383       .  S
O1200     Zr1219   2.379       .  S
Zr1201     O1226   2.439       .  S
Zr1201     O1220   2.469       .  S
Zr1201     O1228   2.489       .  S
Zr1201     O1216   2.427       .  S
Zr1201     O1207   2.386       .  S
Zr1201     O1208   2.429       .  S
Zr1201     O1209   2.385       .  S
Zr1201     O1210   2.387       .  S
Zr1202     O1221   2.436       .  S
Zr1202     O1214   2.433       .  S
Zr1202     O1215   2.442       .  S
Zr1202     O1208   2.403       .  S
Zr1202     O1209   2.391       .  S
Zr1203     O1205   2.435       .  S
Zr1203     O1227   2.440       .  S
Zr1203     O1229   2.420       .  S
Zr1203     O1207   2.381       .  S
Zr1203     O1210   2.394       .  S
Zr1204     O1230   2.435       .  S
Zr1204     O1231   2.434       .  S
Zr1204     O1206   2.438       .  S
Zr1204     O1207   2.384       .  S
Zr1204     O1208   2.407       .  S
O1205      H1242   0.990       .  S
O1206      H1237   0.990       .  S
O1206      H1251   0.990       .  S
O1208      H1234   0.966       .  S
O1209     Zr1219   2.378       .  S
O1210     Zr1219   2.401       .  S
O1210      H1235   0.966       .  S
C1211      C2851   1.481       .  S
C1212      C2831   1.474   1_455  S
C1213      C2878   1.497       .  S
O1214      H1250   0.990       .  S
O1215      C1217   1.288       .  A
O1216      C1217   1.281       .  A
C1217      C2838   1.488       .  S
O1218     Zr1219   2.440       .  S
O1218      H1247   0.990       .  S
Zr1219     O1222   2.437       .  S
Zr1219     O1223   2.441       .  S
Zr1219     O1224   2.395       .  S
O1220      C1225   1.289       .  A
O1221      H1238   0.990       .  S
O1221      H1253   0.990       .  S
O1222      H1239   0.990       .  S
O1223      H1243   0.990       .  S
O1223      H1252   0.990       .  S
O1224      C1225   1.277       .  A
C1225      C2861   1.488       .  S
O1226      H1245   0.989       .  S
O1226      H1249   0.990       .  S
O1227      H1241   0.990       .  S
O1227      H1248   0.990       .  S
O1228      C1232   1.293       .  A
O1229      C1232   1.281       .  A
O1230      H1240   0.990       .  S
O1231      H1244   0.990       .  S
C1232      C2871   1.491       .  S
Zr1255     O1256   2.443       .  S
Zr1255     O1257   2.469       .  S
Zr1255     O1258   2.478       .  S
Zr1255     O1261   2.419       .  S
Zr1255     O1263   2.377       .  S
Zr1255     O1264   2.396       .  S
Zr1255     O1265   2.408       .  S
Zr1255     O1266   2.423       .  S
O1256      H1312   0.990       .  S
O1256      H1320   0.991       .  S
O1257      C1277   1.291       .  A
O1258      C1279   1.290       .  A
O1259     Zr1269   2.443   1_655  S
O1259      C1278   1.288       .  A
O1260     Zr1268   2.431       .  S
O1260      C1279   1.283       .  A
O1261      C1278   1.281   1_455  A
O1262     Zr1270   2.393       .  S
O1262      C1277   1.275       .  A
O1263     Zr1268   2.392       .  S
O1263     Zr1270   2.397       .  S
O1264     Zr1269   2.403       .  S
O1264     Zr1270   2.378       .  S
O1264      H1299   0.967       .  S
O1265     Zr1268   2.398       .  S
O1265     Zr1285   2.374       .  S
O1265      H1302   0.963       .  S
O1266     Zr1269   2.399       .  S
O1266     Zr1285   2.401       .  S
Zr1267     O1292   2.442       .  S
Zr1267     O1286   2.418       .  S
Zr1267     O1294   2.426       .  S
Zr1267     O1282   2.443       .  S
Zr1267     O1273   2.400       .  S
Zr1267     O1274   2.395       .  S
Zr1267     O1275   2.378       .  S
Zr1267     O1276   2.385       .  S
Zr1268     O1287   2.437       .  S
Zr1268     O1280   2.434       .  S
Zr1268     O1281   2.412       .  S
Zr1268     O1274   2.397       .  S
Zr1268     O1275   2.389       .  S
Zr1269     O1271   2.436   1_455  S
Zr1269     O1293   2.435       .  S
Zr1269     O1295   2.466       .  S
Zr1269     O1273   2.393       .  S
Zr1269     O1276   2.387       .  S
Zr1270     O1296   2.436       .  S
Zr1270     O1297   2.437       .  S
Zr1270     O1272   2.435       .  S
Zr1270     O1273   2.391       .  S
Zr1270     O1274   2.376       .  S
O1271      H1308   0.990       .  S
O1272      H1303   0.989       .  S
O1272      H1317   0.990       .  S
O1274      H1300   0.964       .  S
O1275     Zr1285   2.376       .  S
O1276     Zr1285   2.355       .  S
O1276      H1301   0.966       .  S
C1277      C2808   1.487       .  S
C1278      C2788   1.479       .  S
C1279      C2868   1.488       .  S
O1280      H1316   0.990       .  S
O1281      C1283   1.283       .  A
O1282      C1283   1.286       .  A
C1283      C2798   1.486       .  S
O1284     Zr1285   2.440       .  S
O1284      H1313   0.991       .  S
Zr1285     O1288   2.439       .  S
Zr1285     O1289   2.440       .  S
Zr1285     O1290   2.426       .  S
O1286      C1291   1.282       .  A
O1287      H1304   0.990       .  S
O1287      H1319   0.990       .  S
O1288      H1305   0.990       .  S
O1289      H1309   0.989       .  S
O1289      H1318   0.990   1_455  S
O1290      C1291   1.283       .  A
C1291      C2818   1.477       .  S
O1292      H1311   0.990       .  S
O1292      H1315   0.990       .  S
O1293      H1307   0.990       .  S
O1293      H1314   0.990       .  S
O1294      C1298   1.284       .  A
O1295      C1298   1.292       .  A
O1296      H1306   0.990       .  S
O1297      H1310   0.990       .  S
C1298      C2888   1.489       .  S
Zr1321     O1322   2.438       .  S
Zr1321     O1323   2.418       .  S
Zr1321     O1324   2.446       .  S
Zr1321     O1327   2.444       .  S
Zr1321     O1329   2.380       .  S
Zr1321     O1330   2.385       .  S
Zr1321     O1331   2.402       .  S
Zr1321     O1332   2.390       .  S
O1322      H1378   0.990       .  S
O1322      H1386   0.990       .  S
O1323      C1343   1.281   1_455  A
O1324      C1345   1.289       .  A
O1325     Zr1335   2.422       .  S
O1325      C1344   1.283       .  A
O1326     Zr1334   2.440       .  S
O1326      C1345   1.285       .  A
O1327      C1344   1.288       .  A
O1328     Zr1336   2.444   1_655  S
O1328      C1343   1.286       .  A
O1329     Zr1334   2.394       .  S
O1329     Zr1336   2.358       .  S
O1330     Zr1335   2.391       .  S
O1330     Zr1336   2.378       .  S
O1330      H1365   0.965       .  S
O1331     Zr1334   2.407       .  S
O1331     Zr1351   2.395       .  S
O1331      H1368   0.965       .  S
O1332     Zr1335   2.398       .  S
O1332     Zr1351   2.379       .  S
Zr1333     O1358   2.442       .  S
Zr1333     O1352   2.474       .  S
Zr1333     O1360   2.448       .  S
Zr1333     O1348   2.428       .  S
Zr1333     O1339   2.393       .  S
Zr1333     O1340   2.429       .  S
Zr1333     O1341   2.380       .  S
Zr1333     O1342   2.384       .  S
Zr1334     O1353   2.435       .  S
Zr1334     O1346   2.428       .  S
Zr1334     O1347   2.449       .  S
Zr1334     O1340   2.397       .  S
Zr1334     O1341   2.392       .  S
Zr1335     O1337   2.435       .  S
Zr1335     O1359   2.445       .  S
Zr1335     O1361   2.449       .  S
Zr1335     O1339   2.373       .  S
Zr1335     O1342   2.393       .  S
Zr1336     O1362   2.435       .  S
Zr1336     O1363   2.435       .  S
Zr1336     O1338   2.438   1_455  S
Zr1336     O1339   2.387       .  S
Zr1336     O1340   2.417       .  S
O1337      H1374   0.990       .  S
O1338      H1369   0.990       .  S
O1338      H1383   0.990       .  S
O1340      H1366   0.965       .  S
O1341     Zr1351   2.381       .  S
O1342     Zr1351   2.400       .  S
O1342      H1367   0.965       .  S
C1343      C2761   1.470       .  S
C1344      C2848   1.476   1_565  S
C1345      C2778   1.494       .  S
O1346      H1382   0.990       .  S
O1347      C1349   1.287       .  A
O1348      C1349   1.281       .  A
C1349      C2858   1.488       .  S
O1350     Zr1351   2.439       .  S
O1350      H1379   0.990       .  S
Zr1351     O1354   2.439       .  S
Zr1351     O1355   2.440       .  S
Zr1351     O1356   2.385       .  S
O1352      C1357   1.290       .  A
O1353      H1370   0.990       .  S
O1353      H1385   0.990       .  S
O1354      H1371   0.990       .  S
O1355      H1375   0.990       .  S
O1355      H1384   0.990       .  S
O1356      C1357   1.275       .  A
C1357      C2751   1.481       .  S
O1358      H1377   0.990       .  S
O1358      H1381   0.992       .  S
O1359      H1373   0.990       .  S
O1359      H1380   0.990       .  S
O1360      C1364   1.287       .  A
O1361      C1364   1.286       .  A
O1362      H1372   0.990       .  S
O1363      H1376   0.990       .  S
C1364      C2771   1.488       .  S
Zr1387     O1388   2.442       .  S
Zr1387     O1389   2.470       .  S
Zr1387     O1390   2.454       .  S
Zr1387     O1393   2.417       .  S
Zr1387     O1395   2.378       .  S
Zr1387     O1396   2.387       .  S
Zr1387     O1397   2.414       .  S
Zr1387     O1398   2.424       .  S
O1388      H1444   0.990       .  S
O1388      H1452   0.991       .  S
O1389      C1409   1.290   1_455  A
O1390      C1411   1.287       .  A
O1391     Zr1401   2.451       .  S
O1391      C1410   1.288       .  A
O1392     Zr1400   2.454       .  S
O1392      C1411   1.287       .  A
O1393      C1410   1.280       .  A
O1394     Zr1402   2.391       .  S
O1394      C1409   1.275   1_455  A
O1395     Zr1400   2.397       .  S
O1395     Zr1402   2.399       .  S
O1396     Zr1401   2.397       .  S
O1396     Zr1402   2.378       .  S
O1396      H1431   0.966       .  S
O1397     Zr1400   2.399       .  S
O1397     Zr1417   2.370       .  S
O1397      H1434   0.963       .  S
O1398     Zr1401   2.391       .  S
O1398     Zr1417   2.408       .  S
Zr1399     O1424   2.440       .  S
Zr1399     O1418   2.415       .  S
Zr1399     O1426   2.437       .  S
Zr1399     O1414   2.442       .  S
Zr1399     O1405   2.401       .  S
Zr1399     O1406   2.396       .  S
Zr1399     O1407   2.381       .  S
Zr1399     O1408   2.387       .  S
Zr1400     O1419   2.439       .  S
Zr1400     O1412   2.434       .  S
Zr1400     O1413   2.423       .  S
Zr1400     O1406   2.404       .  S
Zr1400     O1407   2.394       .  S
Zr1401     O1403   2.434       .  S
Zr1401     O1425   2.437       .  S
Zr1401     O1427   2.451       .  S
Zr1401     O1405   2.399       .  S
Zr1401     O1408   2.391       .  S
Zr1402     O1428   2.435       .  S
Zr1402     O1429   2.437       .  S
Zr1402     O1404   2.438       .  S
Zr1402     O1405   2.392       .  S
Zr1402     O1406   2.377       .  S
O1403      H1440   0.990   1_565  S
O1404      H1435   0.990   1_455  S
O1404      H1449   0.990   1_455  S
O1406      H1432   0.965       .  S
O1407     Zr1417   2.372       .  S
O1408     Zr1417   2.352       .  S
O1408      H1433   0.965       .  S
C1409      C2728   1.489       .  S
C1410      C2811   1.484   1_565  S
C1411      C2768   1.487       .  S
O1412      H1448   0.990       .  S
O1413      C1415   1.284       .  A
O1414      C1415   1.287       .  A
C1415      C2821   1.473       .  S
O1416     Zr1417   2.439       .  S
O1416      H1445   0.990       .  S
Zr1417     O1420   2.437       .  S
Zr1417     O1421   2.440       .  S
Zr1417     O1422   2.434       .  S
O1418      C1423   1.281       .  A
O1419      H1436   0.991       .  S
O1419      H1451   0.990       .  S
O1420      H1437   0.990       .  S
O1421      H1441   0.990       .  S
O1421      H1450   0.990       .  S
O1422      C1423   1.285       .  A
C1423      C2741   1.471       .  S
O1424      H1443   0.989       .  S
O1424      H1447   0.990       .  S
O1425      H1439   0.990       .  S
O1425      H1446   0.990       .  S
O1426      C1430   1.287       .  A
O1427      C1430   1.288       .  A
O1428      H1438   0.990       .  S
O1429      H1442   0.990       .  S
C1430      C2931   1.481       .  S
Zr1453     O1454   2.440       .  S
Zr1453     O1455   2.413       .  S
Zr1453     O1456   2.435       .  S
Zr1453     O1459   2.424       .  S
Zr1453     O1461   2.383       .  S
Zr1453     O1462   2.390       .  S
Zr1453     O1463   2.398       .  S
Zr1453     O1464   2.398       .  S
O1454      H1510   0.990       .  S
O1454      H1518   0.990       .  S
O1455      C1475   1.281       .  A
O1456      C1477   1.286       .  A
O1457     Zr1467   2.443       .  S
O1457      C1476   1.285       .  A
O1458     Zr1466   2.444       .  S
O1458      C1477   1.287       .  A
O1459      C1476   1.284       .  A
O1460     Zr1468   2.432       .  S
O1460      C1475   1.285       .  A
O1461     Zr1466   2.389       .  S
O1461     Zr1468   2.365       .  S
O1462     Zr1467   2.387       .  S
O1462     Zr1468   2.378       .  S
O1462      H1497   0.965       .  S
O1463     Zr1466   2.403       .  S
O1463     Zr1483   2.395       .  S
O1463      H1500   0.965       .  S
O1464     Zr1467   2.386       .  S
O1464     Zr1483   2.381       .  S
Zr1465     O1490   2.442       .  S
Zr1465     O1484   2.467       .  S
Zr1465     O1492   2.460       .  S
Zr1465     O1480   2.419       .  S
Zr1465     O1471   2.387       .  S
Zr1465     O1472   2.424       .  S
Zr1465     O1473   2.379       .  S
Zr1465     O1474   2.384       .  S
Zr1466     O1485   2.435       .  S
Zr1466     O1478   2.432       .  S
Zr1466     O1479   2.444       .  S
Zr1466     O1472   2.397       .  S
Zr1466     O1473   2.392       .  S
Zr1467     O1469   2.435       .  S
Zr1467     O1491   2.436       .  S
Zr1467     O1493   2.451       .  S
Zr1467     O1471   2.373       .  S
Zr1467     O1474   2.394       .  S
Zr1468     O1494   2.434       .  S
Zr1468     O1495   2.436       .  S
Zr1468     O1470   2.438   1_565  S
Zr1468     O1471   2.377       .  S
Zr1468     O1472   2.408       .  S
O1469      H1506   0.990       .  S
O1470      H1501   0.990       .  S
O1470      H1515   0.990       .  S
O1472      H1498   0.966       .  S
O1473     Zr1483   2.386       .  S
O1474     Zr1483   2.399       .  S
O1474      H1499   0.966       .  S
C1475      C2828   1.466   1_565  S
C1476      C2758   1.477       .  S
C1477      C2711   1.488       .  S
O1478      H1514   0.990       .  S
O1479      C1481   1.286       .  A
O1480      C1481   1.280       .  A
C1481      C2748   1.475       .  S
O1482     Zr1483   2.442       .  S
O1482      H1511   0.990       .  S
Zr1483     O1486   2.436       .  S
Zr1483     O1487   2.443       .  S
Zr1483     O1488   2.388       .  S
O1484      C1489   1.289       .  A
O1485      H1502   0.990       .  S
O1485      H1517   0.990       .  S
O1486      H1503   0.990       .  S
O1487      H1507   0.990       .  S
O1487      H1516   0.989       .  S
O1488      C1489   1.275       .  A
C1489      C2841   1.479       .  S
O1490      H1509   0.991       .  S
O1490      H1513   0.990       .  S
O1491      H1505   0.990       .  S
O1491      H1512   0.990       .  S
O1492      C1496   1.289       .  A
O1493      C1496   1.287       .  A
O1494      H1504   0.990       .  S
O1495      H1508   0.991       .  S
C1496      C2718   1.494       .  S
Zr1519     O1520   2.442       .  S
Zr1519     O1521   2.451       .  S
Zr1519     O1522   2.452       .  S
Zr1519     O1525   2.425       .  S
Zr1519     O1527   2.378       .  S
Zr1519     O1528   2.386       .  S
Zr1519     O1529   2.407       .  S
Zr1519     O1530   2.414       .  S
O1520      H1576   0.990       .  S
O1520      H1584   0.990       .  S
O1521      C1541   1.287       .  A
O1522      C1543   1.288       .  A
O1523     Zr1533   2.447       .  S
O1523      C1542   1.288       .  A
O1524     Zr1532   2.441       .  S
O1524      C1543   1.284       .  A
O1525      C1542   1.281       .  A
O1526     Zr1534   2.395       .  S
O1526      C1541   1.276       .  A
O1527     Zr1532   2.400       .  S
O1527     Zr1534   2.391       .  S
O1528     Zr1533   2.395       .  S
O1528     Zr1534   2.379       .  S
O1528      H1563   0.966       .  S
O1529     Zr1532   2.401       .  S
O1529     Zr1549   2.378       .  S
O1529      H1566   0.963       .  S
O1530     Zr1533   2.391       .  S
O1530     Zr1549   2.399       .  S
Zr1531     O1556   2.441       .  S
Zr1531     O1550   2.420       .  S
Zr1531     O1558   2.419       .  S
Zr1531     O1546   2.441       .  S
Zr1531     O1537   2.402       .  S
Zr1531     O1538   2.393       .  S
Zr1531     O1539   2.378       .  S
Zr1531     O1540   2.386       .  S
Zr1532     O1551   2.435       .  S
Zr1532     O1544   2.434       .  S
Zr1532     O1545   2.432       .  S
Zr1532     O1538   2.398       .  S
Zr1532     O1539   2.388       .  S
Zr1533     O1535   2.434       .  S
Zr1533     O1557   2.435       .  S
Zr1533     O1559   2.449       .  S
Zr1533     O1537   2.399       .  S
Zr1533     O1540   2.388       .  S
Zr1534     O1560   2.437       .  S
Zr1534     O1561   2.437       .  S
Zr1534     O1536   2.436       .  S
Zr1534     O1537   2.394       .  S
Zr1534     O1538   2.382       .  S
O1535      H1572   0.990       .  S
O1536      H1567   0.990       .  S
O1536      H1581   0.990       .  S
O1538      H1564   0.966       .  S
O1539     Zr1549   2.374       .  S
O1540     Zr1549   2.356       .  S
O1540      H1565   0.964       .  S
C1541      C2791   1.481   1_565  S
C1542      C2731   1.487       .  S
C1543      C2721   1.494       .  S
O1544      H1580   0.990       .  S
O1545      C1547   1.285       .  A
O1546      C1547   1.287       .  A
C1547      C2738   1.481       .  S
O1548     Zr1549   2.439       .  S
O1548      H1577   0.991       .  S
Zr1549     O1552   2.437       .  S
Zr1549     O1553   2.441       .  S
Zr1549     O1554   2.426       .  S
O1550      C1555   1.283       .  A
O1551      H1568   0.990       .  S
O1551      H1583   0.990       .  S
O1552      H1569   0.990       .  S
O1553      H1573   0.990       .  S
O1553      H1582   0.990       .  S
O1554      C1555   1.282       .  A
C1555      C2801   1.487       .  S
O1556      H1575   0.990       .  S
O1556      H1579   0.990       .  S
O1557      H1571   0.990       .  S
O1557      H1578   0.990       .  S
O1558      C1562   1.283       .  A
O1559      C1562   1.288       .  A
O1560      H1570   0.990       .  S
O1561      H1574   0.990       .  S
C1562      C3011   1.473       .  S
Zr1585     O1586   2.441       .  S
Zr1585     O1587   2.425       .  S
Zr1585     O1588   2.437       .  S
Zr1585     O1591   2.427       .  S
Zr1585     O1593   2.382       .  S
Zr1585     O1594   2.384       .  S
Zr1585     O1595   2.398       .  S
Zr1585     O1596   2.399       .  S
O1586      H1642   0.990       .  S
O1586      H1650   0.990       .  S
O1587      C1607   1.282       .  A
O1588      C1609   1.284       .  A
O1589     Zr1599   2.421       .  S
O1589      C1608   1.281       .  A
O1590     Zr1598   2.452       .  S
O1590      C1609   1.289       .  A
O1591      C1608   1.284       .  A
O1592     Zr1600   2.430       .  S
O1592      C1607   1.283       .  A
O1593     Zr1598   2.394       .  S
O1593     Zr1600   2.368       .  S
O1594     Zr1599   2.390       .  S
O1594     Zr1600   2.381       .  S
O1594      H1629   0.966       .  S
O1595     Zr1598   2.396       .  S
O1595     Zr1615   2.391       .  S
O1595      H1632   0.966       .  S
O1596     Zr1599   2.395       .  S
O1596     Zr1615   2.386       .  S
Zr1597     O1622   2.443       .  S
Zr1597     O1616   2.467       .  S
Zr1597     O1624   2.470       .  S
Zr1597     O1612   2.415       .  S
Zr1597     O1603   2.378       .  S
Zr1597     O1604   2.431       .  S
Zr1597     O1605   2.387       .  S
Zr1597     O1606   2.385       .  S
Zr1598     O1617   2.437       .  S
Zr1598     O1610   2.432       .  S
Zr1598     O1611   2.449       .  S
Zr1598     O1604   2.403       .  S
Zr1598     O1605   2.397       .  S
Zr1599     O1601   2.436       .  S
Zr1599     O1623   2.438       .  S
Zr1599     O1625   2.447       .  S
Zr1599     O1603   2.368       .  S
Zr1599     O1606   2.386       .  S
Zr1600     O1626   2.434       .  S
Zr1600     O1627   2.435       .  S
Zr1600     O1602   2.437   1_655  S
Zr1600     O1603   2.371       .  S
Zr1600     O1604   2.415       .  S
O1601      H1638   0.990       .  S
O1602      H1633   0.990       .  S
O1602      H1647   0.990       .  S
O1604      H1630   0.966       .  S
O1605     Zr1615   2.379       .  S
O1606     Zr1615   2.400       .  S
O1606      H1631   0.965       .  S
C1607      C2661   1.466   1_655  S
C1608      C2678   1.467       .  S
C1609      C2781   1.497       .  S
O1610      H1646   0.990       .  S
O1611      C1613   1.287       .  A
O1612      C1613   1.279       .  A
C1613      C2688   1.485       .  S
O1614     Zr1615   2.439       .  S
O1614      H1643   0.990       .  S
Zr1615     O1618   2.439       .  S
Zr1615     O1619   2.440       .  S
Zr1615     O1620   2.390       .  S
O1616      C1621   1.289       .  A
O1617      H1634   0.990       .  S
O1617      H1649   0.990       .  S
O1618      H1635   0.990       .  S
O1619      H1639   0.990       .  S
O1619      H1648   0.990       .  S
O1620      C1621   1.276       .  A
C1621      C2671   1.480       .  S
O1622      H1641   0.990       .  S
O1622      H1645   0.991       .  S
O1623      H1637   0.990       .  S
O1623      H1644   0.990       .  S
O1624      C1628   1.291       .  A
O1625      C1628   1.286       .  A
O1626      H1636   0.990       .  S
O1627      H1640   0.990       .  S
C1628      C2698   1.498       .  S
Zr1651     O1652   2.442       .  S
Zr1651     O1653   2.474       .  S
Zr1651     O1654   2.471       .  S
Zr1651     O1657   2.428       .  S
Zr1651     O1659   2.380       .  S
Zr1651     O1660   2.389       .  S
Zr1651     O1661   2.412       .  S
Zr1651     O1662   2.424       .  S
O1652      H1708   0.990       .  S
O1652      H1716   0.991       .  S
O1653      C1673   1.290       .  A
O1654      C1675   1.291       .  A
O1655     Zr1665   2.459       .  S
O1655      C1674   1.290       .  A
O1656     Zr1664   2.442       .  S
O1656      C1675   1.285       .  A
O1657      C1674   1.283       .  A
O1658     Zr1666   2.393       .  S
O1658      C1673   1.276       .  A
O1659     Zr1664   2.401       .  S
O1659     Zr1666   2.397       .  S
O1660     Zr1665   2.400       .  S
O1660     Zr1666   2.375       .  S
O1660      H1695   0.967       .  S
O1661     Zr1664   2.399       .  S
O1661     Zr1681   2.374       .  S
O1661      H1698   0.963       .  S
O1662     Zr1665   2.395       .  S
O1662     Zr1681   2.407       .  S
Zr1663     O1688   2.443       .  S
Zr1663     O1682   2.420       .  S
Zr1663     O1690   2.449       .  S
Zr1663     O1678   2.444       .  S
Zr1663     O1669   2.399       .  S
Zr1663     O1670   2.401       .  S
Zr1663     O1671   2.380       .  S
Zr1663     O1672   2.385       .  S
Zr1664     O1683   2.438       .  S
Zr1664     O1676   2.435       .  S
Zr1664     O1677   2.422       .  S
Zr1664     O1670   2.405       .  S
Zr1664     O1671   2.391       .  S
Zr1665     O1667   2.431       .  S
Zr1665     O1689   2.434       .  S
Zr1665     O1691   2.467       .  S
Zr1665     O1669   2.398       .  S
Zr1665     O1672   2.390       .  S
Zr1666     O1692   2.436       .  S
Zr1666     O1693   2.436       .  S
Zr1666     O1668   2.437       .  S
Zr1666     O1669   2.394       .  S
Zr1666     O1670   2.375       .  S
O1667      H1704   0.990       .  S
O1668      H1699   0.990   1_655  S
O1668      H1713   0.990       .  S
O1670      H1696   0.965       .  S
O1671     Zr1681   2.373       .  S
O1672     Zr1681   2.359       .  S
O1672      H1697   0.966       .  S
C1673      C2628   1.488   1_655  S
C1674      C2608   1.493       .  S
C1675      C2701   1.497       .  S
O1676      H1712   0.990       .  S
O1677      C1679   1.284       .  A
O1678      C1679   1.287       .  A
C1679      C2621   1.472       .  S
O1680     Zr1681   2.439       .  S
O1680      H1709   0.991       .  S
Zr1681     O1684   2.439       .  S
Zr1681     O1685   2.439       .  S
Zr1681     O1686   2.432       .  S
O1682      C1687   1.282       .  A
O1683      H1700   0.990       .  S
O1683      H1715   0.990       .  S
O1684      H1701   0.990       .  S
O1685      H1705   0.989       .  S
O1685      H1714   0.990       .  S
O1686      C1687   1.284       .  A
C1687      C2638   1.478       .  S
O1688      H1707   0.990       .  S
O1688      H1711   0.990       .  S
O1689      H1703   0.990       .  S
O1689      H1710   0.990       .  S
O1690      C1694   1.290       .  A
O1691      C1694   1.291       .  A
O1692      H1702   0.990       .  S
O1693      H1706   0.990       .  S
C1694      C2651   1.507       .  S
Zr1717     O1718   2.438       .  S
Zr1717     O1719   2.403       .  S
Zr1717     O1720   2.435       .  S
Zr1717     O1723   2.426       .  S
Zr1717     O1725   2.378       .  S
Zr1717     O1726   2.386       .  S
Zr1717     O1727   2.396       .  S
Zr1717     O1728   2.394       .  S
O1718      H1774   0.991       .  S
O1718      H1782   0.990       .  S
O1719      C1739   1.278       .  A
O1720      C1741   1.284       .  A
O1721     Zr1731   2.421       .  S
O1721      C1740   1.281       .  A
O1722     Zr1730   2.450       .  S
O1722      C1741   1.288       .  A
O1723      C1740   1.284       .  A
O1724     Zr1732   2.435       .  S
O1724      C1739   1.285       .  A
O1725     Zr1730   2.385       .  S
O1725     Zr1732   2.365       .  S
O1726     Zr1731   2.386       .  S
O1726     Zr1732   2.379       .  S
O1726      H1761   0.965       .  S
O1727     Zr1730   2.397       .  S
O1727     Zr1747   2.397       .  S
O1727      H1764   0.965       .  S
O1728     Zr1731   2.390       .  S
O1728     Zr1747   2.380       .  S
Zr1729     O1754   2.441       .  S
Zr1729     O1748   2.475       .  S
Zr1729     O1756   2.465       .  S
Zr1729     O1744   2.418       .  S
Zr1729     O1735   2.390       .  S
Zr1729     O1736   2.429       .  S
Zr1729     O1737   2.387       .  S
Zr1729     O1738   2.384       .  S
Zr1730     O1749   2.435       .  S
Zr1730     O1742   2.430       .  S
Zr1730     O1743   2.442       .  S
Zr1730     O1736   2.404       .  S
Zr1730     O1737   2.399       .  S
Zr1731     O1733   2.435       .  S
Zr1731     O1755   2.441       .  S
Zr1731     O1757   2.435       .  S
Zr1731     O1735   2.374       .  S
Zr1731     O1738   2.393       .  S
Zr1732     O1758   2.436       .  S
Zr1732     O1759   2.435       .  S
Zr1732     O1734   2.437       .  S
Zr1732     O1735   2.381       .  S
Zr1732     O1736   2.408       .  S
O1733      H1770   0.990       .  S
O1734      H1765   0.990       .  S
O1734      H1779   0.990       .  S
O1736      H1762   0.966       .  S
O1737     Zr1747   2.383       .  S
O1738     Zr1747   2.399       .  S
O1738      H1763   0.966       .  S
C1739      C2601   1.473       .  S
C1740      C2658   1.467   1_545  S
C1741      C2881   1.499       .  S
O1742      H1778   0.990       .  S
O1743      C1745   1.286       .  A
O1744      C1745   1.280       .  A
C1745      C2668   1.475       .  S
O1746     Zr1747   2.440       .  S
O1746      H1775   0.990       .  S
Zr1747     O1750   2.437       .  S
Zr1747     O1751   2.442       .  S
Zr1747     O1752   2.385       .  S
O1748      C1753   1.290       .  A
O1749      H1766   0.990       .  S
O1749      H1781   0.990       .  S
O1750      H1767   0.990       .  S
O1751      H1771   0.990       .  S
O1751      H1780   0.989       .  S
O1752      C1753   1.276       .  A
C1753      C2591   1.493       .  S
O1754      H1773   0.990       .  S
O1754      H1777   0.990       .  S
O1755      H1769   0.990       .  S
O1755      H1776   0.990       .  S
O1756      C1760   1.290       .  A
O1757      C1760   1.284       .  A
O1758      H1768   0.990       .  S
O1759      H1772   0.990       .  S
C1760      C2578   1.497       .  S
Zr1783     O1784   2.442       .  S
Zr1783     O1785   2.467       .  S
Zr1783     O1786   2.475       .  S
Zr1783     O1789   2.411       .  S
Zr1783     O1791   2.374       .  S
Zr1783     O1792   2.389       .  S
Zr1783     O1793   2.406       .  S
Zr1783     O1794   2.423       .  S
O1784      H1840   0.990       .  S
O1784      H1848   0.990       .  S
O1785      C1805   1.289       .  A
O1786      C1807   1.292       .  A
O1787     Zr1797   2.453   1_565  S
O1787      C1806   1.289       .  A
O1788     Zr1796   2.433       .  S
O1788      C1807   1.282       .  A
O1789      C1806   1.280   1_545  A
O1790     Zr1798   2.386       .  S
O1790      C1805   1.276       .  A
O1791     Zr1796   2.392       .  S
O1791     Zr1798   2.394       .  S
O1792     Zr1797   2.394       .  S
O1792     Zr1798   2.376       .  S
O1792      H1827   0.965       .  S
O1793     Zr1796   2.398       .  S
O1793     Zr1813   2.377       .  S
O1793      H1830   0.964       .  S
O1794     Zr1797   2.395       .  S
O1794     Zr1813   2.401       .  S
Zr1795     O1820   2.441       .  S
Zr1795     O1814   2.408       .  S
Zr1795     O1822   2.444       .  S
Zr1795     O1810   2.455       .  S
Zr1795     O1801   2.399       .  S
Zr1795     O1802   2.396       .  S
Zr1795     O1803   2.378       .  S
Zr1795     O1804   2.386       .  S
Zr1796     O1815   2.437       .  S
Zr1796     O1808   2.434       .  S
Zr1796     O1809   2.407       .  S
Zr1796     O1802   2.401       .  S
Zr1796     O1803   2.390       .  S
Zr1797     O1799   2.433   1_545  S
Zr1797     O1821   2.437       .  S
Zr1797     O1823   2.458       .  S
Zr1797     O1801   2.401       .  S
Zr1797     O1804   2.389       .  S
Zr1798     O1824   2.436       .  S
Zr1798     O1825   2.436       .  S
Zr1798     O1800   2.437       .  S
Zr1798     O1801   2.394       .  S
Zr1798     O1802   2.374       .  S
O1799      H1836   0.990       .  S
O1800      H1831   0.990       .  S
O1800      H1845   0.990       .  S
O1802      H1828   0.965       .  S
O1803     Zr1813   2.371       .  S
O1804     Zr1813   2.361       .  S
O1804      H1829   0.965       .  S
C1805      C2551   1.481       .  S
C1806      C2631   1.479       .  S
C1807      C2581   1.500       .  S
O1808      H1844   0.990       .  S
O1809      C1811   1.281       .  A
O1810      C1811   1.289       .  A
C1811      C2641   1.473       .  S
O1812     Zr1813   2.439       .  S
O1812      H1841   0.990       .  S
Zr1813     O1816   2.437       .  S
Zr1813     O1817   2.441       .  S
Zr1813     O1818   2.428       .  S
O1814      C1819   1.279       .  A
O1815      H1832   0.990       .  S
O1815      H1847   0.990       .  S
O1816      H1833   0.990       .  S
O1817      H1837   0.990       .  S
O1817      H1846   0.990   1_545  S
O1818      C1819   1.284       .  A
C1819      C2561   1.468       .  S
O1820      H1839   0.990       .  S
O1820      H1843   0.990       .  S
O1821      H1835   0.990       .  S
O1821      H1842   0.990       .  S
O1822      C1826   1.289       .  A
O1823      C1826   1.289       .  A
O1824      H1834   0.990       .  S
O1825      H1838   0.990       .  S
C1826      C2568   1.504       .  S
Zr1849     O1850   2.439       .  S
Zr1849     O1851   2.419       .  S
Zr1849     O1852   2.428       .  S
Zr1849     O1855   2.435       .  S
Zr1849     O1857   2.382       .  S
Zr1849     O1858   2.382       .  S
Zr1849     O1859   2.399       .  S
Zr1849     O1860   2.384       .  S
O1850      H1906   0.990       .  S
O1850      H1914   0.990       .  S
O1851      C1871   1.282   1_545  A
O1852      C1873   1.283       .  A
O1853     Zr1863   2.412       .  S
O1853      C1872   1.280       .  A
O1854     Zr1862   2.441       .  S
O1854      C1873   1.287       .  A
O1855      C1872   1.286       .  A
O1856     Zr1864   2.432   1_565  S
O1856      C1871   1.283       .  A
O1857     Zr1862   2.394       .  S
O1857     Zr1864   2.362       .  S
O1858     Zr1863   2.396       .  S
O1858     Zr1864   2.385       .  S
O1858      H1893   0.965       .  S
O1859     Zr1862   2.404       .  S
O1859     Zr1879   2.387       .  S
O1859      H1896   0.965       .  S
O1860     Zr1863   2.387       .  S
O1860     Zr1879   2.374       .  S
Zr1861     O1886   2.440       .  S
Zr1861     O1880   2.467       .  S
Zr1861     O1888   2.462       .  S
Zr1861     O1876   2.423       .  S
Zr1861     O1867   2.386       .  S
Zr1861     O1868   2.427       .  S
Zr1861     O1869   2.383       .  S
Zr1861     O1870   2.382       .  S
Zr1862     O1881   2.436       .  S
Zr1862     O1874   2.433       .  S
Zr1862     O1875   2.445       .  S
Zr1862     O1868   2.401       .  S
Zr1862     O1869   2.392       .  S
Zr1863     O1865   2.436       .  S
Zr1863     O1887   2.439       .  S
Zr1863     O1889   2.433       .  S
Zr1863     O1867   2.374       .  S
Zr1863     O1870   2.390       .  S
Zr1864     O1890   2.435       .  S
Zr1864     O1891   2.436       .  S
Zr1864     O1866   2.438   1_545  S
Zr1864     O1867   2.383       .  S
Zr1864     O1868   2.415       .  S
O1865      H1902   0.990       .  S
O1866      H1897   0.990       .  S
O1866      H1911   0.990       .  S
O1868      H1894   0.965       .  S
O1869     Zr1879   2.376       .  S
O1870     Zr1879   2.399       .  S
O1870      H1895   0.964       .  S
C1871      C2681   1.472       .  S
C1872      C2598   1.469   1_655  S
C1873      C2708   1.486       .  S
O1874      H1910   0.990       .  S
O1875      C1877   1.287       .  A
O1876      C1877   1.281       .  A
C1877      C2588   1.488       .  S
O1878     Zr1879   2.440       .  S
O1878      H1907   0.990       .  S
Zr1879     O1882   2.438       .  S
Zr1879     O1883   2.440       .  S
Zr1879     O1884   2.378       .  S
O1880      C1885   1.288       .  A
O1881      H1898   0.990       .  S
O1881      H1913   0.990       .  S
O1882      H1899   0.990       .  S
O1883      H1903   0.990       .  S
O1883      H1912   0.990       .  S
O1884      C1885   1.275       .  A
C1885      C2691   1.483       .  S
O1886      H1905   0.990       .  S
O1886      H1909   0.989       .  S
O1887      H1901   0.990       .  S
O1887      H1908   0.990       .  S
O1888      C1892   1.289       .  A
O1889      C1892   1.285       .  A
O1890      H1900   0.990       .  S
O1891      H1904   0.990       .  S
C1892      C2541   1.487       .  S
Zr1915     O1916   2.442       .  S
Zr1915     O1917   2.470       .  S
Zr1915     O1918   2.472       .  S
Zr1915     O1921   2.421       .  S
Zr1915     O1923   2.379       .  S
Zr1915     O1924   2.389       .  S
Zr1915     O1925   2.413       .  S
Zr1915     O1926   2.430       .  S
O1916      H1972   0.989       .  S
O1916      H1980   0.990       .  S
O1917      C1937   1.289       .  A
O1918      C1939   1.290       .  A
O1919     Zr1929   2.444       .  S
O1919      C1938   1.287       .  A
O1920     Zr1928   2.442       .  S
O1920      C1939   1.285       .  A
O1921      C1938   1.282       .  A
O1922     Zr1930   2.399       .  S
O1922      C1937   1.277       .  A
O1923     Zr1928   2.398       .  S
O1923     Zr1930   2.394       .  S
O1924     Zr1929   2.403       .  S
O1924     Zr1930   2.371       .  S
O1924      H1959   0.966       .  S
O1925     Zr1928   2.399       .  S
O1925     Zr1945   2.367       .  S
O1925      H1962   0.962       .  S
O1926     Zr1929   2.402       .  S
O1926     Zr1945   2.409       .  S
Zr1927     O1952   2.440       .  S
Zr1927     O1946   2.408       .  S
Zr1927     O1954   2.436       .  S
Zr1927     O1942   2.436       .  S
Zr1927     O1933   2.395       .  S
Zr1927     O1934   2.399       .  S
Zr1927     O1935   2.379       .  S
Zr1927     O1936   2.385       .  S
Zr1928     O1947   2.436       .  S
Zr1928     O1940   2.434       .  S
Zr1928     O1941   2.431       .  S
Zr1928     O1934   2.400       .  S
Zr1928     O1935   2.387       .  S
Zr1929     O1931   2.436   1_655  S
Zr1929     O1953   2.433       .  S
Zr1929     O1955   2.469       .  S
Zr1929     O1933   2.394       .  S
Zr1929     O1936   2.384       .  S
Zr1930     O1956   2.435       .  S
Zr1930     O1957   2.435       .  S
Zr1930     O1932   2.437       .  S
Zr1930     O1933   2.396       .  S
Zr1930     O1934   2.382       .  S
O1931      H1968   0.990       .  S
O1932      H1963   0.990   1_545  S
O1932      H1977   0.990       .  S
O1934      H1960   0.965       .  S
O1935     Zr1945   2.372       .  S
O1936     Zr1945   2.352       .  S
O1936      H1961   0.965       .  S
C1937      C2611   1.492   1_545  S
C1938      C2548   1.485   1_655  S
C1939      C2538   1.489       .  S
O1940      H1976   0.990       .  S
O1941      C1943   1.285       .  A
O1942      C1943   1.286       .  A
C1943      C2558   1.478       .  S
O1944     Zr1945   2.440       .  S
O1944      H1973   0.990       .  S
Zr1945     O1948   2.438       .  S
Zr1945     O1949   2.440       .  S
Zr1945     O1950   2.433       .  S
O1946      C1951   1.279       .  A
O1947      H1964   0.990       .  S
O1947      H1979   0.990       .  S
O1948      H1965   0.990       .  S
O1949      H1969   0.990       .  S
O1949      H1978   0.990       .  S
O1950      C1951   1.285       .  A
C1951      C2618   1.475       .  S
O1952      H1971   0.990       .  S
O1952      H1975   0.990       .  S
O1953      H1967   0.990       .  S
O1953      H1974   0.989       .  S
O1954      C1958   1.286       .  A
O1955      C1958   1.293       .  A
O1956      H1966   0.990       .  S
O1957      H1970   0.989       .  S
C1958      C2531   1.499       .  S
Zr1981     O1982   2.441       .  S
Zr1981     O1983   2.476       .  S
Zr1981     O1984   2.482       .  S
Zr1981     O1987   2.419       .  S
Zr1981     O1989   2.381       .  S
Zr1981     O1990   2.394       .  S
Zr1981     O1991   2.413       .  S
Zr1981     O1992   2.426       .  S
O1982      H2038   0.990       .  S
O1982      H2046   0.990       .  S
O1983      C2003   1.290       .  A
O1984      C2005   1.292       .  A
O1985     Zr1995   2.458       .  S
O1985      C2004   1.290       .  A
O1986     Zr1994   2.431       .  S
O1986      C2005   1.284       .  A
O1987      C2004   1.281       .  A
O1988     Zr1996   2.382       .  S
O1988      C2003   1.275       .  A
O1989     Zr1994   2.400       .  S
O1989     Zr1996   2.397       .  S
O1990     Zr1995   2.398       .  S
O1990     Zr1996   2.377       .  S
O1990      H2025   0.966       .  S
O1991     Zr1994   2.400       .  S
O1991     Zr2011   2.379       .  S
O1991      H2028   0.962       .  S
O1992     Zr1995   2.398       .  S
O1992     Zr2011   2.400       .  S
Zr1993     O2018   2.442       .  S
Zr1993     O2012   2.417       .  S
Zr1993     O2020   2.441       .  S
Zr1993     O2008   2.454       .  S
Zr1993     O1999   2.402       .  S
Zr1993     O2000   2.396       .  S
Zr1993     O2001   2.381       .  S
Zr1993     O2002   2.388       .  S
Zr1994     O2013   2.438       .  S
Zr1994     O2006   2.433       .  S
Zr1994     O2007   2.423       .  S
Zr1994     O2000   2.399       .  S
Zr1994     O2001   2.390       .  S
Zr1995     O1997   2.434       .  S
Zr1995     O2019   2.436       .  S
Zr1995     O2021   2.472       .  S
Zr1995     O1999   2.396       .  S
Zr1995     O2002   2.390       .  S
Zr1996     O2022   2.435       .  S
Zr1996     O2023   2.435       .  S
Zr1996     O1998   2.437       .  S
Zr1996     O1999   2.392       .  S
Zr1996     O2000   2.366       .  S
O1997      H2034   0.990       .  S
O1998      H2029   0.990       .  S
O1998      H2043   0.990       .  S
O2000      H2026   0.964       .  S
O2001     Zr2011   2.377       .  S
O2002     Zr2011   2.353       .  S
O2002      H2027   0.965       .  S
C2003      C2491   1.490       .  S
C2004      C2511   1.488       .  S
C2005      C2518   1.495       .  S
O2006      H2042   0.990       .  S
O2007      C2009   1.284       .  A
O2008      C2009   1.289       .  A
C2009      C2498   1.475       .  S
O2010     Zr2011   2.439       .  S
O2010      H2039   0.990       .  S
Zr2011     O2014   2.438       .  S
Zr2011     O2015   2.440       .  S
Zr2011     O2016   2.434       .  S
O2012      C2017   1.282       .  A
O2013      H2030   0.990       .  S
O2013      H2045   0.990       .  S
O2014      H2031   0.990       .  S
O2015      H2035   0.989       .  S
O2015      H2044   0.990       .  S
O2016      C2017   1.284       .  A
C2017      C2481   1.472       .  S
O2018      H2037   0.991       .  S
O2018      H2041   0.990       .  S
O2019      H2033   0.990       .  S
O2019      H2040   0.990       .  S
O2020      C2024   1.286       .  A
O2021      C2024   1.293       .  A
O2022      H2032   0.990       .  S
O2023      H2036   0.989       .  S
C2024      C2648   1.506       .  S
Zr2047     O2048   2.438       .  S
Zr2047     O2049   2.420       .  S
Zr2047     O2050   2.440       .  S
Zr2047     O2053   2.438       .  S
Zr2047     O2055   2.381       .  S
Zr2047     O2056   2.384       .  S
Zr2047     O2057   2.402       .  S
Zr2047     O2058   2.396       .  S
O2048      H2104   0.990       .  S
O2048      H2112   0.990       .  S
O2049      C2069   1.281       .  A
O2050      C2071   1.287       .  A
O2051     Zr2061   2.422       .  S
O2051      C2070   1.283       .  A
O2052     Zr2060   2.461       .  S
O2052      C2071   1.290       .  A
O2053      C2070   1.287       .  A
O2054     Zr2062   2.429       .  S
O2054      C2069   1.284       .  A
O2055     Zr2060   2.389       .  S
O2055     Zr2062   2.363       .  S
O2056     Zr2061   2.388       .  S
O2056     Zr2062   2.380       .  S
O2056      H2091   0.965       .  S
O2057     Zr2060   2.399       .  S
O2057     Zr2077   2.401       .  S
O2057      H2094   0.966       .  S
O2058     Zr2061   2.384       .  S
O2058     Zr2077   2.379       .  S
Zr2059     O2084   2.439       .  S
Zr2059     O2078   2.467       .  S
Zr2059     O2086   2.479       .  S
Zr2059     O2074   2.421       .  S
Zr2059     O2065   2.383       .  S
Zr2059     O2066   2.427       .  S
Zr2059     O2067   2.385       .  S
Zr2059     O2068   2.383       .  S
Zr2060     O2079   2.435       .  S
Zr2060     O2072   2.432       .  S
Zr2060     O2073   2.446       .  S
Zr2060     O2066   2.405       .  S
Zr2060     O2067   2.393       .  S
Zr2061     O2063   2.436       .  S
Zr2061     O2085   2.441       .  S
Zr2061     O2087   2.425       .  S
Zr2061     O2065   2.376       .  S
Zr2061     O2068   2.395       .  S
Zr2062     O2088   2.436       .  S
Zr2062     O2089   2.435       .  S
Zr2062     O2064   2.437       .  S
Zr2062     O2065   2.379       .  S
Zr2062     O2066   2.405       .  S
O2063      H2100   0.990       .  S
O2064      H2095   0.990       .  S
O2064      H2109   0.990       .  S
O2066      H2092   0.966       .  S
O2067     Zr2077   2.378       .  S
O2068     Zr2077   2.399       .  S
O2068      H2093   0.964       .  S
C2069      C2448   1.463       .  S
C2070      C2468   1.476       .  S
C2071      C3191   1.503       .  S
O2072      H2108   0.990       .  S
O2073      C2075   1.287       .  A
O2074      C2075   1.280       .  A
C2075      C2458   1.475       .  S
O2076     Zr2077   2.439       .  S
O2076      H2105   0.990       .  S
Zr2077     O2080   2.438       .  S
Zr2077     O2081   2.441       .  S
Zr2077     O2082   2.397       .  S
O2078      C2083   1.288       .  A
O2079      H2096   0.990       .  S
O2079      H2111   0.990       .  S
O2080      H2097   0.990       .  S
O2081      H2101   0.990       .  S
O2081      H2110   0.990       .  S
O2082      C2083   1.278       .  A
C2083      C2438   1.488       .  S
O2084      H2103   0.989       .  S
O2084      H2107   0.991       .  S
O2085      H2099   0.990       .  S
O2085      H2106   0.990       .  S
O2086      C2090   1.293       .  A
O2087      C2090   1.284       .  A
O2088      H2098   0.990       .  S
O2089      H2102   0.990       .  S
C2090      C2521   1.492       .  S
Zr2113     O2114   2.442       .  S
Zr2113     O2115   2.455       .  S
Zr2113     O2116   2.468       .  S
Zr2113     O2119   2.428       .  S
Zr2113     O2121   2.378       .  S
Zr2113     O2122   2.391       .  S
Zr2113     O2123   2.409   1_455  S
Zr2113     O2124   2.419       .  S
O2114      H2170   0.990       .  S
O2114      H2178   0.990       .  S
O2115      C2135   1.287       .  A
O2116      C2137   1.291       .  A
O2117     Zr2127   2.455       .  S
O2117      C2136   1.289       .  A
O2118     Zr2126   2.445       .  S
O2118      C2137   1.285   1_655  A
O2119      C2136   1.284       .  A
O2120     Zr2128   2.395       .  S
O2120      C2135   1.277       .  A
O2121     Zr2126   2.392   1_455  S
O2121     Zr2128   2.391       .  S
O2122     Zr2127   2.399       .  S
O2122     Zr2128   2.376       .  S
O2122      H2157   0.967       .  S
O2123     Zr2126   2.403       .  S
O2123     Zr2143   2.377       .  S
O2123      H2160   0.963       .  S
O2124     Zr2127   2.399       .  S
O2124     Zr2143   2.403   1_455  S
Zr2125     O2150   2.441       .  S
Zr2125     O2144   2.415       .  S
Zr2125     O2152   2.441       .  S
Zr2125     O2140   2.428       .  S
Zr2125     O2131   2.396   1_655  S
Zr2125     O2132   2.403       .  S
Zr2125     O2133   2.379       .  S
Zr2125     O2134   2.381       .  S
Zr2126     O2145   2.437       .  S
Zr2126     O2138   2.435       .  S
Zr2126     O2139   2.422       .  S
Zr2126     O2132   2.402       .  S
Zr2126     O2133   2.388       .  S
Zr2127     O2129   2.428       .  S
Zr2127     O2151   2.436       .  S
Zr2127     O2153   2.467       .  S
Zr2127     O2131   2.393       .  S
Zr2127     O2134   2.391   1_455  S
Zr2128     O2154   2.435       .  S
Zr2128     O2155   2.435       .  S
Zr2128     O2130   2.438       .  S
Zr2128     O2131   2.394       .  S
Zr2128     O2132   2.379   1_455  S
O2129      H2166   0.990       .  S
O2130      H2161   0.990       .  S
O2130      H2175   0.990       .  S
O2132      H2158   0.965       .  S
O2133     Zr2143   2.367       .  S
O2134     Zr2143   2.363       .  S
O2134      H2159   0.966       .  S
C2135      C2418   1.483       .  S
C2136      C2488   1.491       .  S
C2137      C2428   1.499       .  S
O2138      H2174   0.990       .  S
O2139      C2141   1.284       .  A
O2140      C2141   1.284       .  A
C2141      C2478   1.464       .  S
O2142     Zr2143   2.439       .  S
O2142      H2171   0.990       .  S
Zr2143     O2146   2.438       .  S
Zr2143     O2147   2.439       .  S
Zr2143     O2148   2.433       .  S
O2144      C2149   1.281       .  A
O2145      H2162   0.990       .  S
O2145      H2177   0.990       .  S
O2146      H2163   0.990       .  S
O2147      H2167   0.990       .  S
O2147      H2176   0.990       .  S
O2148      C2149   1.284       .  A
C2149      C2408   1.473       .  S
O2150      H2169   0.990       .  S
O2150      H2173   0.990       .  S
O2151      H2165   0.990       .  S
O2151      H2172   0.990       .  S
O2152      C2156   1.288       .  A
O2153      C2156   1.291   1_455  A
O2154      H2164   0.990       .  S
O2155      H2168   0.989   1_455  S
C2156      C2528   1.500       .  S
Zr2179     O2180   2.434       .  S
Zr2179     O2181   2.428       .  S
Zr2179     O2182   2.438       .  S
Zr2179     O2185   2.419       .  S
Zr2179     O2187   2.380       .  S
Zr2179     O2188   2.384       .  S
Zr2179     O2189   2.402       .  S
Zr2179     O2190   2.393       .  S
O2180      H2236   0.990       .  S
O2180      H2244   0.990       .  S
O2181      C2201   1.285       .  A
O2182      C2203   1.286       .  A
O2183     Zr2193   2.435       .  S
O2183      C2202   1.285       .  A
O2184     Zr2192   2.462   1_455  S
O2184      C2203   1.292       .  A
O2185      C2202   1.283       .  A
O2186     Zr2194   2.437       .  S
O2186      C2201   1.284       .  A
O2187     Zr2192   2.389   1_455  S
O2187     Zr2194   2.362       .  S
O2188     Zr2193   2.385       .  S
O2188     Zr2194   2.382       .  S
O2188      H2223   0.966       .  S
O2189     Zr2192   2.395   1_455  S
O2189     Zr2209   2.399   1_455  S
O2189      H2226   0.965       .  S
O2190     Zr2193   2.380       .  S
O2190     Zr2209   2.376   1_455  S
Zr2191     O2216   2.442       .  S
Zr2191     O2210   2.472       .  S
Zr2191     O2218   2.484       .  S
Zr2191     O2206   2.429       .  S
Zr2191     O2197   2.387   1_655  S
Zr2191     O2198   2.431       .  S
Zr2191     O2199   2.388       .  S
Zr2191     O2200   2.386       .  S
Zr2192     O2211   2.436       .  S
Zr2192     O2204   2.433       .  S
Zr2192     O2205   2.450       .  S
Zr2192     O2198   2.405       .  S
Zr2192     O2199   2.391       .  S
Zr2193     O2195   2.436       .  S
Zr2193     O2217   2.433       .  S
Zr2193     O2219   2.423       .  S
Zr2193     O2197   2.375       .  S
Zr2193     O2200   2.394   1_455  S
Zr2194     O2220   2.435       .  S
Zr2194     O2221   2.436       .  S
Zr2194     O2196   2.438       .  S
Zr2194     O2197   2.383       .  S
Zr2194     O2198   2.410   1_455  S
O2195      H2232   0.990       .  S
O2196      H2227   0.990       .  S
O2196      H2241   0.990       .  S
O2198      H2224   0.966       .  S
O2199     Zr2209   2.383       .  S
O2200     Zr2209   2.402       .  S
O2200      H2225   0.965       .  S
C2201      C2401   1.494       .  S
C2202      C2451   1.473       .  S
C2203      C3068   1.501       .  S
O2204      H2240   0.990       .  S
O2205      C2207   1.287       .  A
O2206      C2207   1.282       .  A
C2207      C2441   1.494       .  S
O2208     Zr2209   2.442   1_455  S
O2208      H2237   0.990       .  S
Zr2209     O2212   2.438       .  S
Zr2209     O2213   2.440   1_655  S
Zr2209     O2214   2.391       .  S
O2210      C2215   1.291       .  A
O2211      H2228   0.990       .  S
O2211      H2243   0.990       .  S
O2212      H2229   0.990       .  S
O2213      H2233   0.990   1_455  S
O2213      H2242   0.990   1_455  S
O2214      C2215   1.275       .  A
C2215      C2388   1.488       .  S
O2216      H2235   0.990       .  S
O2216      H2239   0.991       .  S
O2217      H2231   0.989       .  S
O2217      H2238   0.990       .  S
O2218      C2222   1.293   1_655  A
O2219      C2222   1.281       .  A
O2220      H2230   0.990       .  S
O2221      H2234   0.990   1_455  S
C2222      C2431   1.499       .  S
Zr2245     O2246   2.441       .  S
Zr2245     O2247   2.467       .  S
Zr2245     O2248   2.472       .  S
Zr2245     O2251   2.413       .  S
Zr2245     O2253   2.378       .  S
Zr2245     O2254   2.395       .  S
Zr2245     O2255   2.411   1_565  S
Zr2245     O2256   2.425       .  S
O2246      H2302   0.990       .  S
O2246      H2310   0.990       .  S
O2247      C2267   1.288       .  A
O2248      C2269   1.289       .  A
O2249     Zr2259   2.440       .  S
O2249      C2268   1.286       .  A
O2250     Zr2258   2.444       .  S
O2250      C2269   1.286   1_545  A
O2251      C2268   1.280       .  A
O2252     Zr2260   2.402       .  S
O2252      C2267   1.279       .  A
O2253     Zr2258   2.394   1_565  S
O2253     Zr2260   2.394       .  S
O2254     Zr2259   2.402       .  S
O2254     Zr2260   2.375       .  S
O2254      H2289   0.967       .  S
O2255     Zr2258   2.397       .  S
O2255     Zr2275   2.380       .  S
O2255      H2292   0.964       .  S
O2256     Zr2259   2.399       .  S
O2256     Zr2275   2.398   1_565  S
Zr2257     O2282   2.439       .  S
Zr2257     O2276   2.417       .  S
Zr2257     O2284   2.439       .  S
Zr2257     O2272   2.440       .  S
Zr2257     O2263   2.399   1_545  S
Zr2257     O2264   2.402       .  S
Zr2257     O2265   2.382       .  S
Zr2257     O2266   2.386       .  S
Zr2258     O2277   2.439       .  S
Zr2258     O2270   2.433       .  S
Zr2258     O2271   2.430       .  S
Zr2258     O2264   2.402       .  S
Zr2258     O2265   2.390       .  S
Zr2259     O2261   2.434       .  S
Zr2259     O2283   2.434       .  S
Zr2259     O2285   2.461       .  S
Zr2259     O2263   2.392       .  S
Zr2259     O2266   2.387   1_565  S
Zr2260     O2286   2.437       .  S
Zr2260     O2287   2.436       .  S
Zr2260     O2262   2.436       .  S
Zr2260     O2263   2.397       .  S
Zr2260     O2264   2.386   1_565  S
O2261      H2298   0.990       .  S
O2262      H2293   0.990       .  S
O2262      H2307   0.990       .  S
O2264      H2290   0.965       .  S
O2265     Zr2275   2.373       .  S
O2266     Zr2275   2.355       .  S
O2266      H2291   0.964       .  S
C2267      C2508   1.495       .  S
C2268      C2421   1.479       .  S
C2269      C2378   1.498       .  S
O2270      H2306   0.990       .  S
O2271      C2273   1.286       .  A
O2272      C2273   1.287       .  A
C2273      C2411   1.483       .  S
O2274     Zr2275   2.439   1_565  S
O2274      H2303   0.990   1_565  S
Zr2275     O2278   2.435       .  S
Zr2275     O2279   2.439       .  S
Zr2275     O2280   2.438       .  S
O2276      C2281   1.281       .  A
O2277      H2294   0.991       .  S
O2277      H2309   0.989       .  S
O2278      H2295   0.990       .  S
O2279      H2299   0.990       .  S
O2279      H2308   0.990   1_545  S
O2280      C2281   1.287       .  A
C2281      C2501   1.483       .  S
O2282      H2301   0.990       .  S
O2282      H2305   0.989       .  S
O2283      H2297   0.990       .  S
O2283      H2304   0.990       .  S
O2284      C2288   1.285       .  A
O2285      C2288   1.290   1_565  A
O2286      H2296   0.990       .  S
O2287      H2300   0.990   1_565  S
C2288      C2571   1.504       .  S
Zr2311     O2312   2.439       .  S
Zr2311     O2313   2.415       .  S
Zr2311     O2314   2.438       .  S
Zr2311     O2317   2.440       .  S
Zr2311     O2319   2.380       .  S
Zr2311     O2320   2.388       .  S
Zr2311     O2321   2.402       .  S
Zr2311     O2322   2.391       .  S
O2312      H2368   0.990       .  S
O2312      H2376   0.990       .  S
O2313      C2333   1.282       .  A
O2314      C2335   1.286       .  A
O2315     Zr2325   2.429       .  S
O2315      C2334   1.285       .  A
O2316     Zr2324   2.452       .  S
O2316      C2335   1.289   1_545  A
O2317      C2334   1.286       .  A
O2318     Zr2326   2.440       .  S
O2318      C2333   1.285       .  A
O2319     Zr2324   2.390   1_565  S
O2319     Zr2326   2.361       .  S
O2320     Zr2325   2.389       .  S
O2320     Zr2326   2.381       .  S
O2320      H2355   0.965       .  S
O2321     Zr2324   2.397   1_565  S
O2321     Zr2341   2.398   1_565  S
O2321      H2358   0.965       .  S
O2322     Zr2325   2.386       .  S
O2322     Zr2341   2.375   1_565  S
Zr2323     O2348   2.438       .  S
Zr2323     O2342   2.471       .  S
Zr2323     O2350   2.476       .  S
Zr2323     O2338   2.438       .  S
Zr2323     O2329   2.392   1_545  S
Zr2323     O2330   2.428       .  S
Zr2323     O2331   2.385       .  S
Zr2323     O2332   2.386       .  S
Zr2324     O2343   2.435       .  S
Zr2324     O2336   2.433       .  S
Zr2324     O2337   2.441       .  S
Zr2324     O2330   2.402       .  S
Zr2324     O2331   2.395       .  S
Zr2325     O2327   2.435       .  S
Zr2325     O2349   2.440       .  S
Zr2325     O2351   2.442       .  S
Zr2325     O2329   2.373       .  S
Zr2325     O2332   2.395   1_565  S
Zr2326     O2352   2.435       .  S
Zr2326     O2353   2.436       .  S
Zr2326     O2328   2.438       .  S
Zr2326     O2329   2.384       .  S
Zr2326     O2330   2.407   1_565  S
O2327      H2364   0.990       .  S
O2328      H2359   0.990       .  S
O2328      H2373   0.990       .  S
O2330      H2356   0.966       .  S
O2331     Zr2341   2.384       .  S
O2332     Zr2341   2.401       .  S
O2332      H2357   0.965       .  S
C2333      C2471   1.481       .  S
C2334      C2398   1.488       .  S
C2335      C3111   1.492       .  S
O2336      H2372   0.990       .  S
O2337      C2339   1.286       .  A
O2338      C2339   1.282       .  A
C2339      C2391   1.482       .  S
O2340     Zr2341   2.441   1_565  S
O2340      H2369   0.990   1_565  S
Zr2341     O2344   2.438       .  S
Zr2341     O2345   2.438       .  S
Zr2341     O2346   2.395       .  S
O2342      C2347   1.291       .  A
O2343      H2360   0.990       .  S
O2343      H2375   0.990       .  S
O2344      H2361   0.990       .  S
O2345      H2365   0.990       .  S
O2345      H2374   0.990       .  S
O2346      C2347   1.276       .  A
C2347      C2461   1.485       .  S
O2348      H2367   0.991       .  S
O2348      H2371   0.989       .  S
O2349      H2363   0.990       .  S
O2349      H2370   0.990       .  S
O2350      C2354   1.292   1_545  A
O2351      C2354   1.287       .  A
O2352      H2362   0.990       .  S
O2353      H2366   0.990   1_565  S
C2354      C2381   1.499       .  S
C2377      C2378   1.409   1_545  A
C2377      C2382   1.402   1_554  A
C2377      H2384   1.083       .  S
C2378      C2379   1.413       .  A
C2379      C2380   1.408   1_554  A
C2379     Br2386   1.918       .  S
C2380      C2381   1.412       .  A
C2380      H2385   1.083       .  S
C2381      C2382   1.412   1_565  A
C2382     Br2383   1.917       .  S
C2387      C2388   1.404       .  A
C2387      C2392   1.401       .  A
C2387      H2394   1.084       .  S
C2388      C2389   1.419       .  A
C2389      C2390   1.399       .  A
C2389     Br2396   1.921       .  S
C2390      C2391   1.400       .  A
C2390      H2395   1.084       .  S
C2391      C2392   1.412       .  A
C2392     Br2393   1.911       .  S
C2397      C2398   1.406       .  A
C2397      C2402   1.397       .  A
C2397      H2404   1.084       .  S
C2398      C2399   1.412       .  A
C2399      C2400   1.401       .  A
C2399     Br2406   1.920       .  S
C2400      C2401   1.410       .  A
C2400      H2405   1.083       .  S
C2401      C2402   1.417       .  A
C2402     Br2403   1.924       .  S
C2407      C2408   1.401       .  A
C2407      C2412   1.398       .  A
C2407      H2414   1.084       .  S
C2408      C2409   1.409       .  A
C2409      C2410   1.397       .  A
C2409     Br2416   1.921       .  S
C2410      C2411   1.406       .  A
C2410      H2415   1.084       .  S
C2411      C2412   1.414       .  A
C2412     Br2413   1.915       .  S
C2417      C2418   1.409       .  A
C2417      C2422   1.397       .  A
C2417      H2424   1.084       .  S
C2418      C2419   1.411       .  A
C2419      C2420   1.398       .  A
C2419     Br2426   1.918       .  S
C2420      C2421   1.406       .  A
C2420      H2425   1.083       .  S
C2421      C2422   1.408       .  A
C2422     Br2423   1.919       .  S
C2427      C2428   1.405       .  A
C2427      C2432   1.399   1_554  A
C2427      H2434   1.082       .  S
C2428      C2429   1.417   1_455  A
C2429      C2430   1.410   1_554  A
C2429     Br2436   1.920       .  S
C2430      C2431   1.409   1_655  A
C2430      H2435   1.083       .  S
C2431      C2432   1.418       .  A
C2432     Br2433   1.923       .  S
C2437      C2438   1.406       .  A
C2437      C2442   1.396       .  A
C2437      H2444   1.084       .  S
C2438      C2439   1.410       .  A
C2439      C2440   1.407       .  A
C2439     Br2446   1.919       .  S
C2440      C2441   1.414       .  A
C2440      H2445   1.083       .  S
C2441      C2442   1.413       .  A
C2442     Br2443   1.921       .  S
C2447      C2448   1.399       .  A
C2447      C2452   1.392       .  A
C2447      H2454   1.084       .  S
C2448      C2449   1.405       .  A
C2449      C2450   1.401       .  A
C2449     Br2456   1.919       .  S
C2450      C2451   1.408       .  A
C2450      H2455   1.084       .  S
C2451      C2452   1.408       .  A
C2452     Br2453   1.916       .  S
C2457      C2458   1.400       .  A
C2457      C2462   1.400       .  A
C2457      H2464   1.084       .  S
C2458      C2459   1.411       .  A
C2459      C2460   1.399       .  A
C2459     Br2466   1.921       .  S
C2460      C2461   1.402       .  A
C2460      H2465   1.078       .  S
C2461      C2462   1.416       .  A
C2462     Br2463   1.918       .  S
C2467      C2468   1.406       .  A
C2467      C2472   1.399       .  A
C2467      H2474   1.084       .  S
C2468      C2469   1.408       .  A
C2469      C2470   1.397       .  A
C2469     Br2476   1.922       .  S
C2470      C2471   1.407       .  A
C2470      H2475   1.082       .  S
C2471      C2472   1.412       .  A
C2472     Br2473   1.921       .  S
C2477      C2478   1.400       .  A
C2477      C2482   1.392       .  A
C2477      H2484   1.084       .  S
C2478      C2479   1.406       .  A
C2479      C2480   1.400       .  A
C2479     Br2486   1.919       .  S
C2480      C2481   1.407       .  A
C2480      H2485   1.084       .  S
C2481      C2482   1.408       .  A
C2482     Br2483   1.917       .  S
C2487      C2488   1.410       .  A
C2487      C2492   1.405       .  A
C2487      H2494   1.081       .  S
C2488      C2489   1.410       .  A
C2489      C2490   1.398       .  A
C2489     Br2496   1.916       .  S
C2490      C2491   1.409       .  A
C2490      H2495   1.084       .  S
C2491      C2492   1.410       .  A
C2492     Br2493   1.916       .  S
C2497      C2498   1.399       .  A
C2497      C2502   1.399       .  A
C2497      H2504   1.084       .  S
C2498      C2499   1.412       .  A
C2499      C2500   1.397       .  A
C2499     Br2506   1.921       .  S
C2500      C2501   1.404       .  A
C2500      H2505   1.084       .  S
C2501      C2502   1.417       .  A
C2502     Br2503   1.920       .  S
C2507      C2508   1.412       .  A
C2507      C2512   1.400       .  A
C2507      H2514   1.083       .  S
C2508      C2509   1.414       .  A
C2509      C2510   1.404       .  A
C2509     Br2516   1.921       .  S
C2510      C2511   1.408       .  A
C2510      H2515   1.081       .  S
C2511      C2512   1.407       .  A
C2512     Br2513   1.918       .  S
C2517      C2518   1.411       .  A
C2517      C2522   1.401   1_554  A
C2517      H2524   1.083       .  S
C2518      C2519   1.411       .  A
C2519      C2520   1.405   1_554  A
C2519     Br2526   1.918       .  S
C2520      C2521   1.411       .  A
C2520      H2525   1.084       .  S
C2521      C2522   1.409       .  A
C2522     Br2523   1.918       .  S
C2527      C2528   1.407       .  A
C2527      C2532   1.405       .  A
C2527      H2534   1.084       .  S
C2528      C2529   1.416       .  A
C2529      C2530   1.406       .  A
C2529     Br2536   1.915   1_655  S
C2530      C2531   1.405       .  A
C2530      H2535   1.083       .  S
C2531      C2532   1.419       .  A
C2532     Br2533   1.923       .  S
C2537      C2538   1.405       .  A
C2537      C2542   1.404       .  A
C2537      H2544   1.083       .  S
C2538      C2539   1.416       .  A
C2539      C2540   1.401       .  A
C2539     Br2546   1.919       .  S
C2540      C2541   1.403       .  A
C2540      H2545   1.084       .  S
C2541      C2542   1.415       .  A
C2542     Br2543   1.919       .  S
C2547      C2548   1.411       .  A
C2547      C2552   1.405       .  A
C2547      H2554   1.083       .  S
C2548      C2549   1.411       .  A
C2549      C2550   1.393       .  A
C2549     Br2556   1.920       .  S
C2550      C2551   1.405       .  A
C2550      H2555   1.084       .  S
C2551      C2552   1.408       .  A
C2552     Br2553   1.918       .  S
C2557      C2558   1.407       .  A
C2557      C2562   1.401       .  A
C2557      H2564   1.083       .  S
C2558      C2559   1.411       .  A
C2559      C2560   1.393       .  A
C2559     Br2566   1.917       .  S
C2560      C2561   1.400       .  A
C2560      H2565   1.084       .  S
C2561      C2562   1.409       .  A
C2562     Br2563   1.922       .  S
C2567      C2568   1.407       .  A
C2567      C2572   1.401       .  A
C2567      H2574   1.083       .  S
C2568      C2569   1.419       .  A
C2569      C2570   1.408       .  A
C2569     Br2576   1.919   1_545  S
C2570      C2571   1.410       .  A
C2570      H2575   1.083   1_545  S
C2571      C2572   1.419       .  A
C2572     Br2573   1.925       .  S
C2577      C2578   1.408       .  A
C2577      C2582   1.407       .  A
C2577      H2584   1.083       .  S
C2578      C2579   1.414       .  A
C2579      C2580   1.399       .  A
C2579     Br2586   1.922       .  S
C2580      C2581   1.407       .  A
C2580      H2585   1.082       .  S
C2581      C2582   1.420       .  A
C2582     Br2583   1.921       .  S
C2587      C2588   1.410       .  A
C2587      C2592   1.404       .  A
C2587      H2594   1.082       .  S
C2588      C2589   1.408       .  A
C2589      C2590   1.395       .  A
C2589     Br2596   1.919       .  S
C2590      C2591   1.411       .  A
C2590      H2595   1.083       .  S
C2591      C2592   1.412       .  A
C2592     Br2593   1.916       .  S
C2597      C2598   1.398       .  A
C2597      C2602   1.394       .  A
C2597      H2604   1.084   1_455  S
C2598      C2599   1.413       .  A
C2599      C2600   1.396       .  A
C2599     Br2606   1.921       .  S
C2600      C2601   1.402       .  A
C2600      H2605   1.084       .  S
C2601      C2602   1.415       .  A
C2602     Br2603   1.922       .  S
C2607      C2608   1.408       .  A
C2607      C2612   1.405       .  A
C2607      H2614   1.078       .  S
C2608      C2609   1.409       .  A
C2609      C2610   1.401       .  A
C2609     Br2616   1.917       .  S
C2610      C2611   1.410       .  A
C2610      H2615   1.084       .  S
C2611      C2612   1.412       .  A
C2612     Br2613   1.921   1_565  S
C2617      C2618   1.401       .  A
C2617      C2622   1.394       .  A
C2617      H2624   1.084       .  S
C2618      C2619   1.416       .  A
C2619      C2620   1.399       .  A
C2619     Br2626   1.919       .  S
C2620      C2621   1.401       .  A
C2620      H2625   1.084       .  S
C2621      C2622   1.411       .  A
C2622     Br2623   1.921       .  S
C2627      C2628   1.411       .  A
C2627      C2632   1.401       .  A
C2627      H2634   1.084       .  S
C2628      C2629   1.410       .  A
C2629      C2630   1.400       .  A
C2629     Br2636   1.911   1_455  S
C2630      C2631   1.405       .  A
C2630      H2635   1.084       .  S
C2631      C2632   1.406       .  A
C2632     Br2633   1.919       .  S
C2637      C2638   1.408       .  A
C2637      C2642   1.401       .  A
C2637      H2644   1.084       .  S
C2638      C2639   1.410       .  A
C2639      C2640   1.395       .  A
C2639     Br2646   1.921       .  S
C2640      C2641   1.404       .  A
C2640      H2645   1.084       .  S
C2641      C2642   1.407       .  A
C2642     Br2643   1.919       .  S
C2647      C2648   1.409       .  A
C2647      C2652   1.410       .  A
C2647      H2654   1.083       .  S
C2648      C2649   1.420       .  A
C2649      C2650   1.404       .  A
C2649     Br2656   1.924       .  S
C2650      C2651   1.407       .  A
C2650      H2655   1.083       .  S
C2651      C2652   1.419       .  A
C2652     Br2653   1.917       .  S
C2657      C2658   1.403       .  A
C2657      C2662   1.396       .  A
C2657      H2664   1.084       .  S
C2658      C2659   1.408       .  A
C2659      C2660   1.397       .  A
C2659     Br2666   1.919       .  S
C2660      C2661   1.400       .  A
C2660      H2665   1.081       .  S
C2661      C2662   1.408       .  A
C2662     Br2663   1.921       .  S
C2667      C2668   1.404       .  A
C2667      C2672   1.397       .  A
C2667      H2674   1.082       .  S
C2668      C2669   1.406       .  A
C2669      C2670   1.397       .  A
C2669     Br2676   1.917       .  S
C2670      C2671   1.409       .  A
C2670      H2675   1.084       .  S
C2671      C2672   1.409       .  A
C2672     Br2673   1.913       .  S
C2677      C2678   1.403       .  A
C2677      C2682   1.398       .  A
C2677      H2684   1.084       .  S
C2678      C2679   1.406       .  A
C2679      C2680   1.396       .  A
C2679     Br2686   1.918       .  S
C2680      C2681   1.405       .  A
C2680      H2685   1.084       .  S
C2681      C2682   1.409       .  A
C2682     Br2683   1.919       .  S
C2687      C2688   1.411       .  A
C2687      C2692   1.401       .  A
C2687      H2694   1.080       .  S
C2688      C2689   1.407       .  A
C2689      C2690   1.394       .  A
C2689     Br2696   1.918       .  S
C2690      C2691   1.410       .  A
C2690      H2695   1.084       .  S
C2691      C2692   1.408       .  A
C2692     Br2693   1.917       .  S
C2697      C2698   1.410       .  A
C2697      C2702   1.407       .  A
C2697      H2704   1.083       .  S
C2698      C2699   1.415       .  A
C2699      C2700   1.401       .  A
C2699     Br2706   1.922       .  S
C2700      C2701   1.407       .  A
C2700      H2705   1.083       .  S
C2701      C2702   1.415       .  A
C2702     Br2703   1.920       .  S
C2707      C2708   1.405       .  A
C2707      C2712   1.403   1_545  A
C2707      H2714   1.084       .  S
C2708      C2709   1.415   1_545  A
C2709      C2710   1.399       .  A
C2709     Br2716   1.924       .  S
C2710      C2711   1.405       .  A
C2710      H2715   1.084       .  S
C2711      C2712   1.414       .  A
C2712     Br2713   1.918   1_565  S
C2717      C2718   1.410       .  A
C2717      C2722   1.406       .  A
C2717      H2724   1.083       .  S
C2718      C2719   1.412       .  A
C2719      C2720   1.398       .  A
C2719     Br2726   1.919       .  S
C2720      C2721   1.407       .  A
C2720      H2725   1.082       .  S
C2721      C2722   1.415       .  A
C2722     Br2723   1.920       .  S
C2727      C2728   1.402       .  A
C2727      C2732   1.401       .  A
C2727      H2734   1.081       .  S
C2728      C2729   1.417       .  A
C2729      C2730   1.400       .  A
C2729     Br2736   1.921       .  S
C2730      C2731   1.402       .  A
C2730      H2735   1.084       .  S
C2731      C2732   1.416       .  A
C2732     Br2733   1.918       .  S
C2737      C2738   1.408       .  A
C2737      C2742   1.404       .  A
C2737      H2744   1.083       .  S
C2738      C2739   1.412       .  A
C2739      C2740   1.393       .  A
C2739     Br2746   1.917       .  S
C2740      C2741   1.399       .  A
C2740      H2745   1.084       .  S
C2741      C2742   1.409       .  A
C2742     Br2743   1.921       .  S
C2747      C2748   1.404       .  A
C2747      C2752   1.398       .  A
C2747      H2754   1.084       .  S
C2748      C2749   1.406       .  A
C2749      C2750   1.400       .  A
C2749     Br2756   1.917       .  S
C2750      C2751   1.410       .  A
C2750      H2755   1.084       .  S
C2751      C2752   1.408       .  A
C2752     Br2753   1.911       .  S
C2757      C2758   1.406       .  A
C2757      C2762   1.402       .  A
C2757      H2764   1.083       .  S
C2758      C2759   1.411       .  A
C2759      C2760   1.396       .  A
C2759     Br2766   1.918       .  S
C2760      C2761   1.400       .  A
C2760      H2765   1.084       .  S
C2761      C2762   1.408       .  A
C2762     Br2763   1.920       .  S
C2767      C2768   1.409       .  A
C2767      C2772   1.401       .  A
C2767      H2774   1.084       .  S
C2768      C2769   1.408       .  A
C2769      C2770   1.403       .  A
C2769     Br2776   1.918       .  S
C2770      C2771   1.410       .  A
C2770      H2775   1.084       .  S
C2771      C2772   1.410       .  A
C2772     Br2773   1.920       .  S
C2777      C2778   1.403       .  A
C2777      C2782   1.399       .  A
C2777      H2784   1.084       .  S
C2778      C2779   1.417   1_455  A
C2779      C2780   1.406       .  A
C2779     Br2786   1.918       .  S
C2780      C2781   1.408       .  A
C2780      H2785   1.083       .  S
C2781      C2782   1.417   1_655  A
C2782     Br2783   1.918       .  S
C2787      C2788   1.402       .  A
C2787      C2792   1.399       .  A
C2787      H2794   1.084       .  S
C2788      C2789   1.414       .  A
C2789      C2790   1.397       .  A
C2789     Br2796   1.917       .  S
C2790      C2791   1.401       .  A
C2790      H2795   1.081   1_545  S
C2791      C2792   1.415       .  A
C2792     Br2793   1.920       .  S
C2797      C2798   1.407       .  A
C2797      C2802   1.392       .  A
C2797      H2804   1.084       .  S
C2798      C2799   1.413       .  A
C2799      C2800   1.401       .  A
C2799     Br2806   1.920       .  S
C2800      C2801   1.410       .  A
C2800      H2805   1.083       .  S
C2801      C2802   1.414       .  A
C2802     Br2803   1.925       .  S
C2807      C2808   1.401       .  A
C2807      C2812   1.399       .  A
C2807      H2814   1.081       .  S
C2808      C2809   1.418       .  A
C2809      C2810   1.401       .  A
C2809     Br2816   1.919       .  S
C2810      C2811   1.402       .  A
C2810      H2815   1.084       .  S
C2811      C2812   1.415       .  A
C2812     Br2813   1.917   1_545  S
C2817      C2818   1.406       .  A
C2817      C2822   1.398       .  A
C2817      H2824   1.082       .  S
C2818      C2819   1.410       .  A
C2819      C2820   1.396       .  A
C2819     Br2826   1.921       .  S
C2820      C2821   1.405       .  A
C2820      H2825   1.084       .  S
C2821      C2822   1.407       .  A
C2822     Br2823   1.920       .  S
C2827      C2828   1.402       .  A
C2827      C2832   1.398       .  A
C2827      H2834   1.084       .  S
C2828      C2829   1.407       .  A
C2829      C2830   1.390       .  A
C2829     Br2836   1.920       .  S
C2830      C2831   1.404       .  A
C2830      H2835   1.084       .  S
C2831      C2832   1.413       .  A
C2832     Br2833   1.917       .  S
C2837      C2838   1.403       .  A
C2837      C2842   1.395       .  A
C2837      H2844   1.084       .  S
C2838      C2839   1.419       .  A
C2839      C2840   1.403       .  A
C2839     Br2846   1.919       .  S
C2840      C2841   1.401       .  A
C2840      H2845   1.084       .  S
C2841      C2842   1.413       .  A
C2842     Br2843   1.922       .  S
C2847      C2848   1.400       .  A
C2847      C2852   1.397       .  A
C2847      H2854   1.084   1_545  S
C2848      C2849   1.412       .  A
C2849      C2850   1.400       .  A
C2849     Br2856   1.920       .  S
C2850      C2851   1.405       .  A
C2850      H2855   1.084       .  S
C2851      C2852   1.416       .  A
C2852     Br2853   1.922       .  S
C2857      C2858   1.407       .  A
C2857      C2862   1.403       .  A
C2857      H2864   1.078       .  S
C2858      C2859   1.408       .  A
C2859      C2860   1.399       .  A
C2859     Br2866   1.917       .  S
C2860      C2861   1.409       .  A
C2860      H2865   1.084       .  S
C2861      C2862   1.411       .  A
C2862     Br2863   1.921       .  S
C2867      C2868   1.409       .  A
C2867      C2872   1.401       .  A
C2867      H2874   1.083       .  S
C2868      C2869   1.407       .  A
C2869      C2870   1.407       .  A
C2869     Br2876   1.918       .  S
C2870      C2871   1.413       .  A
C2870      H2875   1.083       .  S
C2871      C2872   1.408       .  A
C2872     Br2873   1.917       .  S
C2877      C2878   1.408       .  A
C2877      C2882   1.402       .  A
C2877      H2884   1.084       .  S
C2878      C2879   1.414       .  A
C2879      C2880   1.406       .  A
C2879     Br2886   1.918       .  S
C2880      C2881   1.409       .  A
C2880      H2885   1.083       .  S
C2881      C2882   1.418       .  A
C2882     Br2883   1.924       .  S
C2887      C2888   1.406       .  A
C2887      C2892   1.406       .  A
C2887      H2894   1.083       .  S
C2888      C2889   1.417       .  A
C2889      C2890   1.399       .  A
C2889     Br2896   1.922       .  S
C2890      C2891   1.400       .  A
C2890      H2895   1.084       .  S
C2891      C2892   1.413       .  A
C2892     Br2893   1.919   1_455  S
C2897      C2898   1.408   1_455  A
C2897      C2902   1.401   1_455  A
C2897      H2904   1.083       .  S
C2898      C2899   1.415       .  A
C2899      C2900   1.403       .  A
C2899     Br2906   1.923       .  S
C2900      C2901   1.409       .  A
C2900      H2905   1.083       .  S
C2901      C2902   1.411       .  A
C2902     Br2903   1.919   1_655  S
C2907      C2908   1.407       .  A
C2907      C2912   1.404       .  A
C2907      H2914   1.083       .  S
C2908      C2909   1.416       .  A
C2909      C2910   1.397       .  A
C2909     Br2916   1.920       .  S
C2910      C2911   1.402       .  A
C2910      H2915   1.084       .  S
C2911      C2912   1.413       .  A
C2912     Br2913   1.916       .  S
C2917      C2918   1.407       .  A
C2917      C2922   1.400       .  A
C2917      H2924   1.084       .  S
C2918      C2919   1.404       .  A
C2919      C2920   1.398       .  A
C2919     Br2926   1.919       .  S
C2920      C2921   1.411       .  A
C2920      H2925   1.084       .  S
C2921      C2922   1.411       .  A
C2922     Br2923   1.917       .  S
C2927      C2928   1.404       .  A
C2927      C2932   1.398       .  A
C2927      H2934   1.081       .  S
C2928      C2929   1.412       .  A
C2929      C2930   1.405       .  A
C2929     Br2936   1.918   1_565  S
C2930      C2931   1.406       .  A
C2930      H2935   1.084       .  S
C2931      C2932   1.408       .  A
C2932     Br2933   1.917       .  S
C2937      C2938   1.407       .  A
C2937      C2942   1.404       .  A
C2937      H2944   1.083       .  S
C2938      C2939   1.415   1_565  A
C2939      C2940   1.403       .  A
C2939     Br2946   1.922       .  S
C2940      C2941   1.407       .  A
C2940      H2945   1.084       .  S
C2941      C2942   1.413   1_545  A
C2942     Br2943   1.920       .  S
C2947      C2948   1.403       .  A
C2947      C2952   1.406       .  A
C2947      H2954   1.083       .  S
C2948      C2949   1.412       .  A
C2949      C2950   1.397       .  A
C2949     Br2956   1.921       .  S
C2950      C2951   1.402       .  A
C2950      H2955   1.084       .  S
C2951      C2952   1.415       .  A
C2952     Br2953   1.919       .  S
C2957      C2958   1.401       .  A
C2957      C2962   1.395       .  A
C2957      H2964   1.084       .  S
C2958      C2959   1.415       .  A
C2959      C2960   1.400       .  A
C2959     Br2966   1.922       .  S
C2960      C2961   1.402       .  A
C2960      H2965   1.084       .  S
C2961      C2962   1.410       .  A
C2962     Br2963   1.921       .  S
C2967      C2968   1.401       .  A
C2967      C2972   1.406       .  A
C2967      H2974   1.083       .  S
C2968      C2969   1.411       .  A
C2969      C2970   1.398       .  A
C2969     Br2976   1.921       .  S
C2970      C2971   1.403       .  A
C2970      H2975   1.084       .  S
C2971      C2972   1.420       .  A
C2972     Br2973   1.920       .  S
C2977      C2978   1.404       .  A
C2977      C2982   1.399       .  A
C2977      H2984   1.083       .  S
C2978      C2979   1.412       .  A
C2979      C2980   1.396       .  A
C2979     Br2986   1.920       .  S
C2980      C2981   1.401       .  A
C2980      H2985   1.084       .  S
C2981      C2982   1.409       .  A
C2982     Br2983   1.921       .  S
C2987      C2988   1.406       .  A
C2987      C2992   1.399       .  A
C2987      H2994   1.082       .  S
C2988      C2989   1.407       .  A
C2989      C2990   1.399       .  A
C2989     Br2996   1.919       .  S
C2990      C2991   1.411       .  A
C2990      H2995   1.084       .  S
C2991      C2992   1.411       .  A
C2992     Br2993   1.921       .  S
C2997      C2998   1.403       .  A
C2997      C3002   1.397       .  A
C2997      H3004   1.084       .  S
C2998      C2999   1.416       .  A
C2999      C3000   1.397       .  A
C2999     Br3006   1.918       .  S
C3000      C3001   1.398       .  A
C3000      H3005   1.084       .  S
C3001      C3002   1.409       .  A
C3002     Br3003   1.921       .  S
C3007      C3008   1.404       .  A
C3007      C3012   1.399       .  A
C3007      H3014   1.084       .  S
C3008      C3009   1.414       .  A
C3009      C3010   1.397       .  A
C3009     Br3016   1.923       .  S
C3010      C3011   1.402       .  A
C3010      H3015   1.084       .  S
C3011      C3012   1.410       .  A
C3012     Br3013   1.918       .  S
C3017      C3018   1.407       .  A
C3017      C3022   1.395       .  A
C3017      H3024   1.084       .  S
C3018      C3019   1.409       .  A
C3019      C3020   1.402       .  A
C3019     Br3026   1.922       .  S
C3020      C3021   1.407       .  A
C3020      H3025   1.079       .  S
C3021      C3022   1.408       .  A
C3022     Br3023   1.917       .  S
C3027      C3028   1.405       .  A
C3027      C3032   1.396       .  A
C3027      H3034   1.084       .  S
C3028      C3029   1.409       .  A
C3029      C3030   1.401       .  A
C3029     Br3036   1.921       .  S
C3030      C3031   1.410       .  A
C3030      H3035   1.084       .  S
C3031      C3032   1.410       .  A
C3032     Br3033   1.920       .  S
C3037      C3038   1.407       .  A
C3037      C3042   1.400       .  A
C3037      H3044   1.084       .  S
C3038      C3039   1.408       .  A
C3039      C3040   1.397       .  A
C3039     Br3046   1.918       .  S
C3040      C3041   1.409       .  A
C3040      H3045   1.084       .  S
C3041      C3042   1.411       .  A
C3042     Br3043   1.914       .  S
C3047      C3048   1.403       .  A
C3047      C3052   1.389       .  A
C3047      H3054   1.083       .  S
C3048      C3049   1.411       .  A
C3049      C3050   1.402       .  A
C3049     Br3056   1.918       .  S
C3050      C3051   1.406       .  A
C3050      H3055   1.084       .  S
C3051      C3052   1.408       .  A
C3052     Br3053   1.920       .  S
C3057      C3058   1.404       .  A
C3057      C3062   1.403       .  A
C3057      H3064   1.084       .  S
C3058      C3059   1.415       .  A
C3059      C3060   1.402       .  A
C3059     Br3066   1.919       .  S
C3060      C3061   1.402       .  A
C3060      H3065   1.084       .  S
C3061      C3062   1.417       .  A
C3062     Br3063   1.922       .  S
C3067      C3068   1.408       .  A
C3067      C3072   1.408       .  A
C3067      H3074   1.083       .  S
C3068      C3069   1.416       .  A
C3069      C3070   1.401       .  A
C3069     Br3076   1.917       .  S
C3070      C3071   1.408       .  A
C3070      H3075   1.083       .  S
C3071      C3072   1.418       .  A
C3072     Br3073   1.919       .  S
C3077      C3078   1.406       .  A
C3077      C3082   1.394       .  A
C3077      H3084   1.082       .  S
C3078      C3079   1.410       .  A
C3079      C3080   1.400       .  A
C3079     Br3086   1.919       .  S
C3080      C3081   1.407       .  A
C3080      H3085   1.083       .  S
C3081      C3082   1.412       .  A
C3082     Br3083   1.924       .  S
C3087      C3088   1.401       .  A
C3087      C3092   1.398       .  A
C3087      H3094   1.083       .  S
C3088      C3089   1.416       .  A
C3089      C3090   1.396       .  A
C3089     Br3096   1.918       .  S
C3090      C3091   1.398       .  A
C3090      H3095   1.084       .  S
C3091      C3092   1.415       .  A
C3092     Br3093   1.922       .  S
C3097      C3098   1.400       .  A
C3097      C3102   1.392       .  A
C3097      H3104   1.084       .  S
C3098      C3099   1.409       .  A
C3099      C3100   1.402       .  A
C3099     Br3106   1.921       .  S
C3100      C3101   1.409       .  A
C3100      H3105   1.083       .  S
C3101      C3102   1.413       .  A
C3102     Br3103   1.920       .  S
C3107      C3108   1.403       .  A
C3107      C3112   1.402       .  A
C3107      H3114   1.084       .  S
C3108      C3109   1.414       .  A
C3109      C3110   1.406       .  A
C3109     Br3116   1.919   1_565  S
C3110      C3111   1.407       .  A
C3110      H3115   1.083   1_565  S
C3111      C3112   1.414       .  A
C3112     Br3113   1.921       .  S
C3117      C3118   1.407       .  A
C3117      C3122   1.398       .  A
C3117      H3124   1.084       .  S
C3118      C3119   1.407       .  A
C3119      C3120   1.397       .  A
C3119     Br3126   1.919       .  S
C3120      C3121   1.410       .  A
C3120      H3125   1.082       .  S
C3121      C3122   1.414       .  A
C3122     Br3123   1.922       .  S
C3127      C3128   1.405       .  A
C3127      C3132   1.403       .  A
C3127      H3134   1.084       .  S
C3128      C3129   1.416       .  A
C3129      C3130   1.398       .  A
C3129     Br3136   1.918       .  S
C3130      C3131   1.399       .  A
C3130      H3135   1.084       .  S
C3131      C3132   1.414       .  A
C3132     Br3133   1.921   1_655  S
C3137      C3138   1.411       .  A
C3137      C3142   1.405       .  A
C3137      H3144   1.084       .  S
C3138      C3139   1.408       .  A
C3139      C3140   1.399       .  A
C3139     Br3146   1.917       .  S
C3140      C3141   1.408       .  A
C3140      H3145   1.084       .  S
C3141      C3142   1.409       .  A
C3142     Br3143   1.917       .  S
C3147      C3148   1.401       .  A
C3147      C3152   1.393       .  A
C3147      H3154   1.084       .  S
C3148      C3149   1.419       .  A
C3149      C3150   1.401       .  A
C3149     Br3156   1.920   1_545  S
C3150      C3151   1.399       .  A
C3150      H3155   1.084       .  S
C3151      C3152   1.410       .  A
C3152     Br3153   1.921       .  S
C3157      C3158   1.402       .  A
C3157      C3162   1.405       .  A
C3157      H3164   1.083       .  S
C3158      C3159   1.410       .  A
C3159      C3160   1.398       .  A
C3159     Br3166   1.921       .  S
C3160      C3161   1.401       .  A
C3160      H3165   1.084       .  S
C3161      C3162   1.413       .  A
C3162     Br3163   1.918       .  S
C3167      C3168   1.405       .  A
C3167      C3172   1.400       .  A
C3167      H3174   1.083       .  S
C3168      C3169   1.418       .  A
C3169      C3170   1.394       .  A
C3169     Br3176   1.922       .  S
C3170      C3171   1.402       .  A
C3170      H3175   1.084       .  S
C3171      C3172   1.416       .  A
C3172     Br3173   1.920       .  S
C3177      C3178   1.404       .  A
C3177      C3182   1.393       .  A
C3177      H3184   1.084       .  S
C3178      C3179   1.409       .  A
C3179      C3180   1.399       .  A
C3179     Br3186   1.922   1_545  S
C3180      C3181   1.409       .  A
C3180      H3185   1.084       .  S
C3181      C3182   1.413       .  A
C3182     Br3183   1.922       .  S
C3187      C3188   1.410       .  A
C3187      C3192   1.408       .  A
C3187      H3194   1.083       .  S
C3188      C3189   1.420       .  A
C3189      C3190   1.404       .  A
C3189     Br3196   1.923       .  S
C3190      C3191   1.407       .  A
C3190      H3195   1.083       .  S
C3191      C3192   1.417       .  A
C3192     Br3193   1.918       .  S
C3197      C3198   1.413       .  A
C3197      C3202   1.404       .  A
C3197      H3204   1.083       .  S
C3198      C3199   1.411       .  A
C3199      C3200   1.400       .  A
C3199     Br3206   1.917       .  S
C3200      C3201   1.411       .  A
C3200      H3205   1.083       .  S
C3201      C3202   1.409       .  A
C3202     Br3203   1.918       .  S
C3207      C3208   1.405       .  A
C3207      C3212   1.393       .  A
C3207      H3214   1.084       .  S
C3208      C3209   1.407       .  A
C3209      C3210   1.406       .  A
C3209     Br3216   1.918       .  S
C3210      C3211   1.413       .  A
C3210      H3215   1.083       .  S
C3211      C3212   1.411       .  A
C3212     Br3213   1.922       .  S
C3217      C3218   1.410       .  A
C3217      C3222   1.400       .  A
C3217      H3224   1.082       .  S
C3218      C3219   1.413       .  A
C3219      C3220   1.394       .  A
C3219     Br3226   1.923       .  S
C3220      C3221   1.406       .  A
C3220      H3225   1.084       .  S
C3221      C3222   1.409       .  A
C3222     Br3223   1.920       .  S
C3227      C3228   1.406       .  A
C3227      C3232   1.391       .  A
C3227      H3234   1.084       .  S
C3228      C3229   1.409       .  A
C3229      C3230   1.400       .  A
C3229     Br3236   1.920       .  S
C3230      C3231   1.412       .  A
C3230      H3235   1.083       .  S
C3231      C3232   1.413       .  A
C3232     Br3233   1.924       .  S
C3237      C3238   1.404       .  A
C3237      C3242   1.393       .  A
C3237      H3244   1.082       .  S
C3238      C3239   1.412       .  A
C3239      C3240   1.398       .  A
C3239     Br3246   1.920       .  S
C3240      C3241   1.404       .  A
C3240      H3245   1.084       .  S
C3241      C3242   1.404       .  A
C3242     Br3243   1.917       .  S
C3247      C3248   1.406       .  A
C3247      C3252   1.404       .  A
C3247      H3254   1.084       .  S
C3248      C3249   1.416   1_565  A
C3249      C3250   1.399       .  A
C3249     Br3256   1.922       .  S
C3250      C3251   1.402       .  A
C3250      H3255   1.084       .  S
C3251      C3252   1.413   1_545  A
C3252     Br3253   1.918       .  S
C3257      C3258   1.403       .  A
C3257      C3262   1.398       .  A
C3257      H3264   1.084       .  S
C3258      C3259   1.416       .  A
C3259      C3260   1.401       .  A
C3259     Br3266   1.920       .  S
C3260      C3261   1.403       .  A
C3260      H3265   1.084       .  S
C3261      C3262   1.416       .  A
C3262     Br3263   1.921       .  S
C3267      C3268   1.408       .  A
C3267      C3272   1.405       .  A
C3267      H3274   1.083       .  S
C3268      C3269   1.415       .  A
C3269      C3270   1.400       .  A
C3269     Br3276   1.923       .  S
C3270      C3271   1.405       .  A
C3270      H3275   1.084       .  S
C3271      C3272   1.414       .  A
C3272     Br3273   1.918       .  S
C3277      C3278   1.404       .  A
C3277      C3282   1.400       .  A
C3277      H3284   1.083       .  S
C3278      C3279   1.419       .  A
C3279      C3280   1.399       .  A
C3279     Br3286   1.923       .  S
C3280      C3281   1.403       .  A
C3280      H3285   1.084       .  S
C3281      C3282   1.415       .  A
C3282     Br3283   1.919       .  S
C3287      C3288   1.407       .  A
C3287      C3292   1.395       .  A
C3287      H3294   1.084       .  S
C3288      C3289   1.413       .  A
C3289      C3290   1.398       .  A
C3289     Br3296   1.916       .  S
C3290      C3291   1.403       .  A
C3290      H3295   1.084       .  S
C3291      C3292   1.408       .  A
C3292     Br3293   1.921       .  S
C3297      C3298   1.405       .  A
C3297      C3302   1.405       .  A
C3297      H3304   1.083       .  S
C3298      C3299   1.414       .  A
C3299      C3300   1.401       .  A
C3299     Br3306   1.921       .  S
C3300      C3301   1.402       .  A
C3300      H3305   1.084       .  S
C3301      C3302   1.412       .  A
C3302     Br3303   1.919       .  S
C3307      C3308   1.408       .  A
C3307      C3312   1.401       .  A
C3307      H3314   1.084       .  S
C3308      C3309   1.406       .  A
C3309      C3310   1.397       .  A
C3309     Br3316   1.918       .  S
C3310      C3311   1.412       .  A
C3310      H3315   1.084       .  S
C3311      C3312   1.411       .  A
C3312     Br3313   1.915       .  S
C3317      C3318   1.401       .  A
C3317      C3322   1.398       .  A
C3317      H3324   1.084       .  S
C3318      C3319   1.410       .  A
C3319      C3320   1.395       .  A
C3319     Br3326   1.921       .  S
C3320      C3321   1.403       .  A
C3320      H3325   1.084       .  S
C3321      C3322   1.417       .  A
C3322     Br3323   1.922       .  S
C3327      C3328   1.410       .  A
C3327      C3332   1.405       .  A
C3327      H3334   1.083       .  S
C3328      C3329   1.411       .  A
C3329      C3330   1.400       .  A
C3329     Br3336   1.920       .  S
C3330      C3331   1.408       .  A
C3330      H3335   1.084       .  S
C3331      C3332   1.408       .  A
C3332     Br3333   1.917       .  S
C3337      C3338   1.406       .  A
C3337      C3342   1.403       .  A
C3337      H3344   1.083       .  S
C3338      C3339   1.413       .  A
C3339      C3340   1.399       .  A
C3339     Br3346   1.922       .  S
C3340      C3341   1.405       .  A
C3340      H3345   1.084       .  S
C3341      C3342   1.410       .  A
C3342     Br3343   1.918       .  S
C3347      C3348   1.409       .  A
C3347      C3352   1.401       .  A
C3347      H3354   1.083       .  S
C3348      C3349   1.415       .  A
C3349      C3350   1.393       .  A
C3349     Br3356   1.923       .  S
C3350      C3351   1.403       .  A
C3350      H3355   1.084       .  S
C3351      C3352   1.411       .  A
C3352     Br3353   1.921   1_565  S
C3357      C3358   1.401       .  A
C3357      C3362   1.402       .  A
C3357      H3364   1.084       .  S
C3358      C3359   1.409       .  A
C3359      C3360   1.397       .  A
C3359     Br3366   1.918       .  S
C3360      C3361   1.401       .  A
C3360      H3365   1.083       .  S
C3361      C3362   1.413       .  A
C3362     Br3363   1.918       .  S
C3367      C3368   1.401       .  A
C3367      C3372   1.397       .  A
C3367      H3374   1.084       .  S
C3368      C3369   1.409       .  A
C3369      C3370   1.401       .  A
C3369     Br3376   1.920       .  S
C3370      C3371   1.406       .  A
C3370      H3375   1.084       .  S
C3371      C3372   1.411       .  A
C3372     Br3373   1.919       .  S
C3377      C3378   1.404       .  A
C3377      C3382   1.408       .  A
C3377      H3384   1.083       .  S
C3378      C3379   1.414       .  A
C3379      C3380   1.396       .  A
C3379     Br3386   1.921       .  S
C3380      C3381   1.401       .  A
C3380      H3385   1.084       .  S
C3381      C3382   1.416       .  A
C3382     Br3383   1.920       .  S
C3387      C3388   1.410       .  A
C3387      C3392   1.408   1_655  A
C3387      H3394   1.083       .  S
C3388      C3389   1.418       .  A
C3389      C3390   1.398   1_655  A
C3389     Br3396   1.924       .  S
C3390      C3391   1.410       .  A
C3390      H3395   1.083       .  S
C3391      C3392   1.418       .  A
C3392     Br3393   1.920       .  S
C3397      C3398   1.406       .  A
C3397      C3402   1.400       .  A
C3397      H3404   1.081       .  S
C3398      C3399   1.412       .  A
C3399      C3400   1.392       .  A
C3399     Br3406   1.924       .  S
C3400      C3401   1.409       .  A
C3400      H3405   1.083       .  S
C3401      C3402   1.414       .  A
C3402     Br3403   1.918       .  S
C3407      C3408   1.408       .  A
C3407      C3412   1.397       .  A
C3407      H3414   1.084       .  S
C3408      C3409   1.410       .  A
C3409      C3410   1.398       .  A
C3409     Br3416   1.921   1_455  S
C3410      C3411   1.405       .  A
C3410      H3415   1.082       .  S
C3411      C3412   1.406       .  A
C3412     Br3413   1.918       .  S
C3417      C3418   1.402       .  A
C3417      C3422   1.392       .  A
C3417      H3424   1.084       .  S
C3418      C3419   1.409       .  A
C3419      C3420   1.399       .  A
C3419     Br3426   1.922       .  S
C3420      C3421   1.408       .  A
C3420      H3425   1.084       .  S
C3421      C3422   1.408       .  A
C3422     Br3423   1.919       .  S
C3427      C3428   1.411       .  A
C3427      C3432   1.401       .  A
C3427      H3434   1.083       .  S
C3428      C3429   1.411       .  A
C3429      C3430   1.395       .  A
C3429     Br3436   1.922       .  S
C3430      C3431   1.407       .  A
C3430      H3435   1.084       .  S
C3431      C3432   1.407       .  A
C3432     Br3433   1.919       .  S
C3437      C3438   1.401       .  A
C3437      C3442   1.396       .  A
C3437      H3444   1.084       .  S
C3438      C3439   1.414       .  A
C3439      C3440   1.405       .  A
C3439     Br3446   1.919       .  S
C3440      C3441   1.407       .  A
C3440      H3445   1.083       .  S
C3441      C3442   1.415       .  A
C3442     Br3443   1.920       .  S
C3447      C3448   1.408       .  A
C3447      C3452   1.405       .  A
C3447      H3454   1.083       .  S
C3448      C3449   1.420       .  A
C3449      C3450   1.398       .  A
C3449     Br3456   1.922       .  S
C3450      C3451   1.404       .  A
C3450      H3455   1.083       .  S
C3451      C3452   1.417       .  A
C3452     Br3453   1.919   1_545  S
