geometry optimzed in LAMMPS
_audit_creation_date              2020-12-01 
_audit_creation_method            'lammps2cif' 
_symmetry_space_group_name_H-M    'P1' 
_symmetry_Int_Tables_number       1 
_symmetry_cell_setting            triclinic 
loop_ 
_symmetry_equiv_pos_as_xyz 
  x,y,z 
_cell_length_a                    71.86977826 
_cell_length_b                    71.8914951921855 
_cell_length_c                    43.699171749315674 
_cell_angle_alpha                 89.66102026758065 
_cell_angle_beta                  90.43975574084263 
_cell_angle_gamma                 120.7722517638482 
loop_ 
_atom_site_label 
_atom_site_type_symbol 
_atom_site_fract_x 
_atom_site_fract_y 
_atom_site_fract_z 
_atom_site_charge 
Zn1        Zn  0.85654903  0.28267614  0.30013080     1.49700
Zn2        Zn  0.88482191  0.27160426  0.25624029     1.49400
Zn3        Zn  0.84191144  0.26945783  0.23020733     1.49100
Zn4        Zn  0.88431273  0.31425515  0.24645458     1.49500
O5          O  0.86663236  0.28428684  0.25833606    -1.82100
O6          O  0.87134931  0.27218207  0.32976915    -0.72700
O7          O  0.87138752  0.24547201  0.22929301    -0.72600
O8          O  0.81339548  0.25827810  0.25282560    -0.72100
O9          O  0.88878501  0.26256336  0.29791254    -0.72800
O10         O  0.82426524  0.26267976  0.30141600    -0.72400
O11         O  0.84090323  0.24301048  0.21290135    -0.72900
O12         O  0.87649955  0.31846170  0.20401137    -0.72300
O13         O  0.91540040  0.29292715  0.24301753    -0.73100
O14         O  0.84535378  0.28848972  0.19332117    -0.72500
O15         O  0.91601832  0.32393457  0.24645470    -0.72900
O16         O  0.87995685  0.33331049  0.27494987    -0.72800
O17         O  0.86190314  0.31182365  0.31395209    -0.72600
C18         C  0.88356609  0.26443983  0.32496839     0.79200
C19         C  0.85373562  0.23572103  0.21415996     0.79600
C20         C  0.80916967  0.25529435  0.28140312     0.78600
C21         C  0.86078734  0.30727513  0.18578589     0.79000
C22         C  0.92585300  0.31353763  0.24332351     0.80100
C23         C  0.87108646  0.33033132  0.30102067     0.79200
Zn24       Zn  0.92794863  0.18317903  0.55340463     1.49700
Zn25       Zn  0.97681683  0.21742725  0.53988558     1.49400
Zn26       Zn  0.95678476  0.21281659  0.60646150     1.49100
Zn27       Zn  0.96399812  0.17481120  0.58065281     1.49500
O28         O  0.95676497  0.19706797  0.57028257    -1.82100
O29         O  0.92652491  0.19912923  0.51684643    -0.72700
O30         O  0.99349968  0.24743737  0.55773185    -0.72600
O31         O  0.92634368  0.20428643  0.62004990    -0.72100
O32         O  0.96072921  0.22066533  0.50342229    -0.72800
O33         O  0.90636952  0.18134707  0.58368486    -0.72400
O34         O  0.97529846  0.24530061  0.59984722    -0.72900
O35         O  0.97103024  0.17606893  0.62619133    -0.72300
O36         O  0.99845768  0.20886518  0.52690886    -0.73100
O37         O  0.96943596  0.20472090  0.64129659    -0.72500
O38         O  0.99131617  0.18133515  0.55811664    -0.72900
O39         O  0.93966188  0.14445058  0.56718275    -0.72800
O40         O  0.91816436  0.15290503  0.54153914    -0.72600
C41         C  0.94056136  0.21314765  0.49882204     0.79200
C42         C  0.98997080  0.25638780  0.58021895     0.79600
C43         C  0.90785391  0.19075286  0.60891215     0.78600
C44         C  0.97348060  0.18971229  0.64675601     0.79000
C45         C  0.00271562  0.19482939  0.53732307     0.80100
C46         C  0.92327584  0.13910792  0.54983416     0.79200
Zn47       Zn  0.92449471  0.36937443  0.86443264     1.49700
Zn48       Zn  0.93942798  0.38737605  0.93150669     1.49400
Zn49       Zn  0.93701549  0.41698291  0.88062750     1.49100
Zn50       Zn  0.89356552  0.37840879  0.90787880     1.49500
O51         O  0.92334521  0.38777221  0.89608671    -1.82100
O52         O  0.93876033  0.35349588  0.88090697    -0.72700
O53         O  0.96005783  0.41742347  0.94668987    -0.72600
O54         O  0.95465216  0.42066530  0.84353175    -0.72100
O55         O  0.95439702  0.37067619  0.92397391    -0.72800
O56         O  0.94356970  0.38710801  0.82894941    -0.72400
O57         O  0.95678185  0.43828745  0.91201140    -0.72900
O58         O  0.88581099  0.40148035  0.89748864    -0.72300
O59         O  0.91934016  0.37259054  0.96606393    -0.73100
O60         O  0.91468738  0.42470101  0.87051533    -0.72500
O61         O  0.88794926  0.36922534  0.95294220    -0.72900
O62         O  0.87363518  0.35206301  0.88310116    -0.72800
O63         O  0.89429184  0.34694971  0.85074490    -0.72600
C64         C  0.95112610  0.35662384  0.90374980     0.79200
C65         C  0.96452007  0.43599147  0.93705332     0.79600
C66         C  0.95546601  0.40750399  0.82505890     0.78600
C67         C  0.89565946  0.41813630  0.88026579     0.79000
C68         C  0.89995483  0.36697626  0.97251062     0.80100
C69         C  0.87569840  0.34148372  0.86142308     0.79200
Zn70       Zn  0.09828088  0.46025093  0.61927297     1.49700
Zn71       Zn  0.08300237  0.46212178  0.55126625     1.49400
Zn72       Zn  0.08521062  0.49457369  0.60138038     1.49100
Zn73       Zn  0.12947383  0.50066562  0.57683186     1.49500
O74         O  0.09923236  0.47942792  0.58688201    -1.82100
O75         O  0.08356798  0.42959026  0.60458738    -0.72700
O76         O  0.05897162  0.46737349  0.53883937    -0.72600
O77         O  0.06880564  0.48153250  0.63985977    -0.72100
O78         O  0.07019032  0.42989573  0.55875877    -0.72800
O79         O  0.07914398  0.45855996  0.65383951    -0.72400
O80         O  0.06313145  0.49237803  0.57212285    -0.72900
O81         O  0.13704978  0.53151588  0.58704535    -0.72300
O82         O  0.10289004  0.47103358  0.51551914    -0.73100
O83         O  0.10618872  0.52592920  0.60701805    -0.72500
O84         O  0.13481499  0.49799144  0.53184537    -0.72900
O85         O  0.14981373  0.49502327  0.60226786    -0.72800
O86         O  0.12830207  0.46886741  0.63436494    -0.72600
C87         C  0.07223662  0.41965479  0.58120362     0.79200
C88         C  0.05363815  0.48050478  0.54913103     0.79600
C89         C  0.06762239  0.46709645  0.65799818     0.78600
C90         C  0.12586868  0.53848690  0.59974963     0.79000
C91         C  0.12263874  0.48525592  0.51075668     0.80100
C92         C  0.14720850  0.48246188  0.62465372     0.79200
Zn93       Zn  0.08989819  0.26148658  0.94184553     1.49700
Zn94       Zn  0.04159227  0.24649106  0.95799011     1.49400
Zn95       Zn  0.05834629  0.25958424  0.89010189     1.49100
Zn96       Zn  0.05277430  0.21549282  0.91879810     1.49500
O97         O  0.06040724  0.24545353  0.92706046    -1.82100
O98         O  0.09277278  0.27813683  0.97960128    -0.72700
O99         O  0.02571029  0.26086484  0.94190039    -0.72600
O100        O  0.08766184  0.28138706  0.87397119    -0.72100
O101        O  0.05871935  0.26541265  0.99343844    -0.72800
O102        O  0.10958977  0.28217499  0.91048023    -0.72400
O103        O  0.04093348  0.27408584  0.89694942    -0.72900
O104        O  0.04243949  0.20758414  0.87457838    -0.72300
O105        O  0.02034028  0.21652125  0.97301883    -0.73100
O106        O  0.04457567  0.23776817  0.85677983    -0.72500
O107        O  0.02789820  0.19512691  0.94608872    -0.72900
O108        O  0.07811248  0.21073069  0.92850319    -0.72800
O109        O  0.10126398  0.24200630  0.95036410    -0.72600
C110        C  0.07895596  0.27781145  0.99789340     0.79200
C111        C  0.02819696  0.27239392  0.91833384     0.79600
C112        C  0.10661349  0.28829442  0.88453479     0.78600
C113        C  0.03978636  0.21825138  0.85327117     0.79000
C114        C  0.01671922  0.19771863  0.96630571     0.80100
C115        C  0.09592958  0.22289481  0.94261673     0.79200
Zn116      Zn  0.13267121  0.40622780  0.26815921     1.49700
Zn117      Zn  0.17101521  0.45274601  0.24387088     1.49400
Zn118      Zn  0.16474960  0.40985365  0.21685658     1.49100
Zn119      Zn  0.12993727  0.42193644  0.20065324     1.49500
O120        O  0.14940068  0.42295029  0.23273550    -1.82100
O121        O  0.14032738  0.42644049  0.30371474    -0.72700
O122        O  0.20189920  0.46048353  0.23275355    -0.72600
O123        O  0.16634220  0.39044038  0.24765514    -0.72100
O124        O  0.16856373  0.45782332  0.28881015    -0.72800
O125        O  0.14056996  0.38384849  0.28086849    -0.72400
O126        O  0.19501790  0.43182110  0.20499250    -0.72900
O127        O  0.12866845  0.40384640  0.16437515    -0.72300
O128        O  0.16472611  0.47319383  0.22031504    -0.73100
O129        O  0.14933056  0.39122802  0.18123982    -0.72500
O130        O  0.13827139  0.45212681  0.18780114    -0.72900
O131        O  0.09922193  0.40658540  0.21590296    -0.72800
O132        O  0.10019950  0.39195751  0.26026716    -0.72600
C133        C  0.15491395  0.44599630  0.30916634     0.79200
C134        C  0.20814454  0.45075031  0.21493174     0.79600
C135        C  0.15526443  0.38048699  0.27103088     0.78600
C136        C  0.13592414  0.39105031  0.16200756     0.79000
C137        C  0.15178518  0.47076110  0.19851598     0.80100
C138        C  0.08953625  0.39445257  0.23876675     0.79200
Zn139      Zn  0.16401260  0.71901947  0.70782219     1.49700
Zn140      Zn  0.13321701  0.72781373  0.74759838     1.49400
Zn141      Zn  0.13562716  0.68546406  0.76110920     1.49100
Zn142      Zn  0.17503627  0.73151423  0.77959040     1.49500
O143        O  0.15207124  0.71586032  0.74898755    -1.82100
O144        O  0.15151633  0.73109398  0.67611516    -0.72700
O145        O  0.10286327  0.70559053  0.75813929    -0.72600
O146        O  0.13969616  0.66718396  0.73004438    -0.72100
O147        O  0.13189986  0.73907115  0.70608687    -0.72800
O148        O  0.15875632  0.69023633  0.69297784    -0.72400
O149        O  0.10364077  0.67523375  0.76298283    -0.72900
O150        O  0.17313103  0.71266706  0.81570808    -0.72300
O151        O  0.14376382  0.75303738  0.77512387    -0.73100
O152        O  0.14490597  0.68073925  0.80317002    -0.72500
O153        O  0.17343225  0.75657754  0.79648721    -0.72900
O154        O  0.20421587  0.74569627  0.75975806    -0.72800
O155        O  0.19613738  0.73985459  0.71011441    -0.72600
C156        C  0.13943022  0.73910248  0.67987517     0.79200
C157        C  0.09322821  0.68522975  0.76217580     0.79600
C158        C  0.14895817  0.67113374  0.70406681     0.78600
C159        C  0.15979883  0.69286715  0.82207792     0.79000
C160        C  0.16026884  0.76323133  0.79229815     0.80100
C161        C  0.20984071  0.74890360  0.73176275     0.79200
Zn162      Zn  0.09010822  0.81904900  0.45157622     1.49700
Zn163      Zn  0.04326419  0.78380650  0.47038041     1.49400
Zn164      Zn  0.05018617  0.82256494  0.42572491     1.49100
Zn165      Zn  0.05898534  0.78613427  0.40058898     1.49500
O166        O  0.06046518  0.80280473  0.43689202    -1.82100
O167        O  0.09514439  0.80745768  0.49118007    -0.72700
O168        O  0.02059100  0.79074075  0.48424542    -0.72600
O169        O  0.07292598  0.85352736  0.43517374    -0.72100
O170        O  0.06183347  0.78364905  0.50590501    -0.72800
O171        O  0.09955490  0.85022708  0.45570506    -0.72400
O172        O  0.02412867  0.81571618  0.45075960    -0.72900
O173        O  0.04598112  0.79351841  0.36488241    -0.72300
O174        O  0.02752754  0.75331609  0.45534851    -0.73100
O175        O  0.04150647  0.82014731  0.38074109    -0.72500
O176        O  0.03997874  0.75406176  0.40867499    -0.72900
O177        O  0.08891795  0.79338508  0.38675646    -0.72800
O178        O  0.10974438  0.81809730  0.42101478    -0.72600
C179        C  0.08227079  0.79323252  0.51012538     0.79200
C180        C  0.01445658  0.80326161  0.47333307     0.79600
C181        C  0.09159071  0.86173920  0.44751084     0.78600
C182        C  0.04028224  0.80735965  0.35968062     0.79000
C183        C  0.02808117  0.74364712  0.43138148     0.80100
C184        C  0.10758377  0.80741051  0.39688729     0.79200
Zn185      Zn  0.84954574  0.54991081  0.75874910     1.49700
Zn186      Zn  0.88785807  0.59575375  0.73263404     1.49400
Zn187      Zn  0.85524562  0.59452936  0.78105983     1.49100
Zn188      Zn  0.88931111  0.58177272  0.80266179     1.49500
O189        O  0.87059644  0.58028769  0.76865610    -1.82100
O190        O  0.85236396  0.54350258  0.71404777    -0.72700
O191        O  0.88149624  0.61870199  0.71654389    -0.72600
O192        O  0.82394638  0.57347228  0.78630659    -0.72100
O193        O  0.88028603  0.57467285  0.69827743    -0.72800
O194        O  0.81864848  0.54226922  0.76826725    -0.72400
O195        O  0.85715992  0.61566529  0.74997352    -0.72900
O196        O  0.88926191  0.60049177  0.83753422    -0.72300
O197        O  0.91987322  0.60911276  0.74172608    -0.73100
O198        O  0.86684351  0.61067874  0.82011502    -0.72500
O199        O  0.92022869  0.59648831  0.78814256    -0.72900
O200        O  0.88071359  0.55163221  0.81824055    -0.72800
O201        O  0.85502521  0.53016772  0.78540207    -0.72600
C202        C  0.86590778  0.55497066  0.69332654     0.79200
C203        C  0.86813731  0.62406800  0.72591353     0.79600
C204        C  0.81147806  0.55360793  0.77988839     0.78600
C205        C  0.88003283  0.61153744  0.84037314     0.79000
C206        C  0.93013868  0.60723942  0.76435760     0.80100
C207        C  0.86717767  0.53271673  0.80831652     0.79200
Zn208      Zn  0.94380435  0.72686897  0.07737737     1.49700
Zn209      Zn  0.98651165  0.77133024  0.08865070     1.49400
Zn210      Zn  0.95379768  0.76721511  0.03502447     1.49100
Zn211      Zn  0.94114104  0.76634298  0.10559771     1.49500
O212        O  0.95627814  0.75806984  0.07656093    -1.82100
O213        O  0.96564421  0.71810443  0.08721007    -0.72700
O214        O  0.00492381  0.79453764  0.05872747    -0.72600
O215        O  0.94033371  0.74180347  0.00510832    -0.72100
O216        O  0.99651769  0.74952666  0.08953624    -0.72800
O217        O  0.93200215  0.71432740  0.03648845    -0.72400
O218        O  0.98301569  0.79065206  0.01996827    -0.72900
O219        O  0.92883962  0.78297071  0.08455938    -0.72300
O220        O  0.99143669  0.78480533  0.13059932    -0.73100
O221        O  0.93500187  0.78048577  0.03538616    -0.72500
O222        O  0.96033592  0.78277127  0.14182225    -0.72900
O223        O  0.91546719  0.73965869  0.12288070    -0.72800
O224        O  0.91873292  0.71246721  0.10577957    -0.72600
C225        C  0.98617837  0.72888942  0.08968404     0.79200
C226        C  0.00170052  0.80018123  0.03247570     0.79600
C227        C  0.93184087  0.72153635  0.00995404     0.78600
C228        C  0.92671583  0.78618043  0.05634037     0.79000
C229        C  0.97974224  0.78823700  0.14881160     0.80100
C230        C  0.90874665  0.71952100  0.12129306     0.79200
Zn231      Zn  0.07895473  0.61674580  0.07291170     1.49700
Zn232      Zn  0.07884569  0.58644215  0.12493253     1.49400
Zn233      Zn  0.12410427  0.62421728  0.10051340     1.49100
Zn234      Zn  0.09276689  0.63431862  0.14071550     1.49500
O235        O  0.09398890  0.61573843  0.10959871    -1.82100
O236        O  0.05757441  0.58669589  0.05720914    -0.72700
O237        O  0.09931335  0.57656758  0.13460878    -0.72600
O238        O  0.13087727  0.63272764  0.05539848    -0.72100
O239        O  0.05927993  0.56583305  0.09326011    -0.72800
O240        O  0.10052840  0.63071226  0.03915091    -0.72400
O241        O  0.13010993  0.60008868  0.11185882    -0.72900
O242        O  0.12275679  0.65675947  0.15429346    -0.72300
O243        O  0.06153461  0.58316349  0.16219724    -0.73100
O244        O  0.14443209  0.65032550  0.12594675    -0.72500
O245        O  0.07466638  0.61707697  0.17683932    -0.72900
O246        O  0.07775676  0.64955663  0.12455325    -0.72800
O247        O  0.06403503  0.63390550  0.07977417    -0.72600
C248        C  0.05232818  0.56803774  0.06750620     0.79200
C249        C  0.11849961  0.58246315  0.12653380     0.79600
C250        C  0.11984966  0.63516107  0.03435736     0.78600
C251        C  0.14164567  0.66137927  0.14616042     0.79000
C252        C  0.06208632  0.59681762  0.18105123     0.80100
C253        C  0.06609762  0.64692553  0.10102805     0.79200
Zn254      Zn  0.89445271  0.53801339  0.42053219     1.49700
Zn255      Zn  0.90120292  0.51248207  0.36602979     1.49400
Zn256      Zn  0.93939107  0.54215734  0.41213269     1.49100
Zn257      Zn  0.90021576  0.49821634  0.43575335     1.49500
O258        O  0.90861660  0.52255071  0.40828696    -1.82100
O259        O  0.87018251  0.53086805  0.39129717    -0.72700
O260        O  0.92735316  0.52810651  0.33786368    -0.72600
O261        O  0.94665754  0.57139656  0.42559176    -0.72100
O262        O  0.87658180  0.51623699  0.35080345    -0.72800
O263        O  0.91549578  0.57057721  0.42095453    -0.72400
O264        O  0.95320862  0.54687408  0.37183633    -0.72900
O265        O  0.92653201  0.49890630  0.45195883    -0.72300
O266        O  0.89083513  0.48052501  0.36492434    -0.73100
O267        O  0.95401402  0.53088054  0.43868278    -0.72500
O268        O  0.88444498  0.46981828  0.41353559    -0.72900
O269        O  0.88443060  0.49968963  0.47283853    -0.72800
O270        O  0.88243657  0.52901074  0.46318770    -0.72600
C271        C  0.86543692  0.52286679  0.36446210     0.79200
C272        C  0.94724320  0.54105910  0.34443338     0.79600
C273        C  0.93595350  0.58100802  0.42513450     0.78600
C274        C  0.94669055  0.51268246  0.45183682     0.79000
C275        C  0.88420777  0.46564956  0.38519304     0.80100
C276        C  0.87952825  0.51363874  0.48098255     0.79200
Zn277      Zn  0.73596192  0.56885662  0.24021047     1.49700
Zn278      Zn  0.73168840  0.60852863  0.26542311     1.49400
Zn279      Zn  0.69062679  0.56152680  0.25710172     1.49100
Zn280      Zn  0.72498839  0.57079376  0.31015608     1.49500
O281        O  0.72090827  0.57762003  0.26834028    -1.82100
O282        O  0.76167528  0.59543453  0.22404492    -0.72700
O283        O  0.70769586  0.61383843  0.25275190    -0.72600
O284        O  0.68630923  0.54903297  0.21456361    -0.72100
O285        O  0.75726121  0.62280688  0.23684199    -0.72800
O286        O  0.71787623  0.55257139  0.20305663    -0.72400
O287        O  0.67829596  0.58114543  0.25608169    -0.72900
O288        O  0.69724804  0.54568163  0.32640524    -0.72300
O289        O  0.74239911  0.62315000  0.30649812    -0.73100
O290        O  0.67442631  0.53732286  0.28723767    -0.72500
O291        O  0.73692371  0.59681689  0.33856607    -0.72900
O292        O  0.74595215  0.56036747  0.31029531    -0.72800
O293        O  0.74787126  0.55231934  0.26185334    -0.72600
C294        C  0.76794771  0.61548398  0.22358359     0.79200
C295        C  0.68714198  0.60153458  0.25236678     0.79600
C296        C  0.69838763  0.54657483  0.19586644     0.78600
C297        C  0.67887952  0.53334852  0.31389345     0.79000
C298        C  0.74344844  0.61669497  0.33331325     0.80100
C299        C  0.75254971  0.55244720  0.29005581     0.79200
Zn300      Zn  0.80098849  0.73100998  0.57455610     1.49700
Zn301      Zn  0.80265901  0.77517190  0.58806545     1.49400
Zn302      Zn  0.84379248  0.77131654  0.60121491     1.49100
Zn303      Zn  0.82854235  0.77153108  0.53154767     1.49500
O304        O  0.81911164  0.76235355  0.57380397    -1.82100
O305        O  0.77028648  0.72189157  0.58444699    -0.72700
O306        O  0.81188724  0.78751634  0.63064788    -0.72600
O307        O  0.84373654  0.74514591  0.61794082    -0.72100
O308        O  0.77052551  0.75287286  0.58711989    -0.72800
O309        O  0.81301686  0.71686388  0.60173927    -0.72400
O310        O  0.84289183  0.78813188  0.63803962    -0.72900
O311        O  0.86045349  0.78218248  0.52929395    -0.72300
O312        O  0.80836343  0.79998466  0.56079675    -0.73100
O313        O  0.87170276  0.78710879  0.57765706    -0.72500
O314        O  0.82425847  0.79648600  0.51949882    -0.72900
O315        O  0.81338470  0.74649934  0.50104746    -0.72800
O316        O  0.79847198  0.71868189  0.53298029    -0.72600
C317        C  0.76028878  0.73222769  0.58613752     0.79200
C318        C  0.82850653  0.79224546  0.64692881     0.79600
C319        C  0.83082439  0.72477593  0.61644613     0.78600
C320        C  0.87558173  0.78814162  0.54906366     0.79000
C321        C  0.81669214  0.80634173  0.53441831     0.80100
C322        C  0.80282196  0.72610650  0.50588209     0.79200
Zn323      Zn  0.77955511  0.79253387  0.91232366     1.49700
Zn324      Zn  0.73390647  0.78754288  0.92427166     1.49400
Zn325      Zn  0.77337434  0.81588831  0.96986735     1.49100
Zn326      Zn  0.77346676  0.83291617  0.90159780     1.49500
O327        O  0.76509123  0.80734457  0.92706889    -1.82100
O328        O  0.75887698  0.75989637  0.91030877    -0.72700
O329        O  0.72030300  0.78409297  0.96546025    -0.72600
O330        O  0.79757364  0.81082031  0.98315348    -0.72100
O331        O  0.72685320  0.75727559  0.91338005    -0.72800
O332        O  0.80377648  0.79813144  0.94078476    -0.72400
O333        O  0.74731974  0.80112697  0.99852506    -0.72900
O334        O  0.79062681  0.86053275  0.92631192    -0.72300
O335        O  0.71943383  0.79916990  0.89641437    -0.73100
O336        O  0.78624285  0.84801588  0.97386166    -0.72500
O337        O  0.74658584  0.83245157  0.88676079    -0.72900
O338        O  0.79028223  0.83337704  0.86391284    -0.72800
O339        O  0.79306442  0.80422215  0.87108726    -0.72600
C340        C  0.73825338  0.74840370  0.91074590     0.79200
C341        C  0.72707221  0.78954702  0.99279642     0.79600
C342        C  0.80881310  0.80490567  0.96817951     0.78600
C343        C  0.79302749  0.86377497  0.95512895     0.79000
C344        C  0.72652726  0.81808755  0.88538798     0.80100
C345        C  0.79651239  0.82055742  0.85507255     0.79200
Zn346      Zn  0.59687815  0.71211755  0.26785069     1.49700
Zn347      Zn  0.59889282  0.74573897  0.21958631     1.49400
Zn348      Zn  0.58255443  0.69799963  0.19899904     1.49100
Zn349      Zn  0.55214796  0.70685103  0.24300510     1.49500
O350        O  0.58233167  0.71559698  0.23248291    -1.82100
O351        O  0.62085481  0.74067228  0.28455569    -0.72700
O352        O  0.61513880  0.75002243  0.18000760    -0.72600
O353        O  0.59366587  0.67881800  0.21321147    -0.72100
O354        O  0.62120019  0.76407594  0.25093359    -0.72800
O355        O  0.60773411  0.69185992  0.25905990    -0.72400
O356        O  0.60341338  0.71624946  0.16586204    -0.72900
O357        O  0.53107847  0.68291208  0.21437577    -0.72300
O358        O  0.57913223  0.75744435  0.21638648    -0.73100
O359        O  0.55259071  0.67947379  0.18148541    -0.72500
O360        O  0.54752675  0.73231323  0.23603479    -0.72900
O361        O  0.54509054  0.69625844  0.28778353    -0.72800
O362        O  0.57611864  0.69918018  0.30190576    -0.72600
C363        C  0.62815656  0.76001577  0.27539585     0.79200
C364        C  0.61560139  0.73654211  0.16171724     0.79600
C365        C  0.60431582  0.67911618  0.23679934     0.78600
C366        C  0.53373731  0.67446761  0.19042816     0.79000
C367        C  0.55981756  0.75108967  0.22460728     0.80100
C368        C  0.55683120  0.69408460  0.30795636     0.79200
Zn369      Zn  0.55550885  0.65042720  0.58083684     1.49700
Zn370      Zn  0.55559983  0.60634238  0.59160950     1.49400
Zn371      Zn  0.52982318  0.61963880  0.63700220     1.49100
Zn372      Zn  0.51316139  0.60516901  0.56797013     1.49500
O373        O  0.53853701  0.62039404  0.59442019    -1.82100
O374        O  0.58712635  0.65952264  0.57833114    -0.72700
O375        O  0.55794694  0.59496104  0.63287303    -0.72600
O376        O  0.53598700  0.64928027  0.65069483    -0.72100
O377        O  0.58646811  0.62830082  0.58110748    -0.72800
O378        O  0.55251157  0.67014150  0.61049002    -0.72400
O379        O  0.54420555  0.60803619  0.66572429    -0.72900
O380        O  0.48586359  0.59387963  0.59209787    -0.72300
O381        O  0.54265948  0.58125001  0.56148439    -0.73100
O382        O  0.49755748  0.59974216  0.64019258    -0.72500
O383        O  0.51161110  0.57900519  0.54897313    -0.72900
O384        O  0.51409667  0.62364169  0.53241581    -0.72800
O385        O  0.54534007  0.65438215  0.53924331    -0.72600
C386        C  0.59684928  0.64884280  0.57839927     0.79200
C387        C  0.55399232  0.59776784  0.66027873     0.79600
C388        C  0.54457179  0.66760480  0.63722135     0.78600
C389        C  0.48213040  0.59144885  0.62071311     0.79000
C390        C  0.52448676  0.57181437  0.54747551     0.80100
C391        C  0.52843652  0.64243816  0.52328943     0.79200
Zn392      Zn  0.62495027  0.51495149  0.86129194     1.49700
Zn393      Zn  0.61378559  0.54385491  0.90265708     1.49400
Zn394      Zn  0.61028037  0.50115465  0.93105274     1.49100
Zn395      Zn  0.65624446  0.54150235  0.91709454     1.49500
O396        O  0.62633149  0.52542262  0.90296990    -1.82100
O397        O  0.61635160  0.53066045  0.82964646    -0.72700
O398        O  0.58712516  0.53167825  0.92945511    -0.72600
O399        O  0.59812341  0.47277361  0.90906772    -0.72100
O400        O  0.60361824  0.54596334  0.86050603    -0.72800
O401        O  0.60236428  0.48313589  0.86035592    -0.72400
O402        O  0.58379780  0.50089174  0.94577959    -0.72900
O403        O  0.65916716  0.53293987  0.96029399    -0.72300
O404        O  0.63687214  0.57470701  0.91260056    -0.73100
O405        O  0.62783407  0.50285302  0.96891208    -0.72500
O406        O  0.66731827  0.57376667  0.91651744    -0.72900
O407        O  0.67465287  0.53484749  0.88984214    -0.72800
O408        O  0.65351414  0.51737933  0.85013295    -0.72600
C409        C  0.60674079  0.54126174  0.83377021     0.79200
C410        C  0.57656618  0.51372040  0.94373435     0.79600
C411        C  0.59412274  0.46833080  0.88072310     0.78600
C412        C  0.64685013  0.51710545  0.97767160     0.79000
C413        C  0.65744798  0.58430463  0.91525104     0.80100
C414        C  0.67160095  0.52526106  0.86422462     0.79200
Zn415      Zn  0.49741290  0.41494697  0.38468511     1.49700
Zn416      Zn  0.46215123  0.36724074  0.36782226     1.49400
Zn417      Zn  0.50172916  0.37649772  0.41356394     1.49100
Zn418      Zn  0.46408867  0.38502969  0.43521151     1.49500
O419        O  0.48134434  0.38571568  0.40052566    -1.82100
O420        O  0.48671027  0.41797097  0.34365063    -0.72700
O421        O  0.47196288  0.34719019  0.35303834    -0.72600
O422        O  0.53309407  0.40096381  0.40851078    -0.72100
O423        O  0.46086622  0.38470971  0.33187566    -0.72800
O424        O  0.52886461  0.42556438  0.38341299    -0.72400
O425        O  0.49784442  0.35233755  0.38598442    -0.72900
O426        O  0.47098197  0.37274826  0.47184565    -0.72300
O427        O  0.43152357  0.34938827  0.38316169    -0.73100
O428        O  0.49648094  0.36582361  0.45816127    -0.72500
O429        O  0.43207317  0.36509035  0.42695330    -0.72900
O430        O  0.47075233  0.41518091  0.44693716    -0.72800
O431        O  0.49494085  0.43557004  0.41203736    -0.72600
C432        C  0.47167125  0.40489037  0.32581268     0.79200
C433        C  0.48597610  0.34268601  0.36280092     0.79600
C434        C  0.54095573  0.41922202  0.39501331     0.78600
C435        C  0.48359114  0.36570386  0.47824386     0.79000
C436        C  0.42169982  0.35114071  0.40611502     0.80100
C437        C  0.48394510  0.43372650  0.43567319     0.79200
Zn438      Zn  0.38957914  0.45663351  0.05877417     1.49700
Zn439      Zn  0.38218307  0.49514375  0.08247837     1.49400
Zn440      Zn  0.37562062  0.45686004  0.12816996     1.49100
Zn441      Zn  0.42194844  0.49058380  0.10574185     1.49500
O442        O  0.39195402  0.47479476  0.09340413    -1.82100
O443        O  0.37543691  0.46294128  0.02353609    -0.72700
O444        O  0.35771540  0.49035129  0.11115594    -0.72600
O445        O  0.35794246  0.42570402  0.11550337    -0.72100
O446        O  0.37141405  0.49033899  0.03753922    -0.72800
O447        O  0.37105337  0.42487629  0.07005342    -0.72400
O448        O  0.35563267  0.46625656  0.14510763    -0.72900
O449        O  0.42791373  0.47804024  0.14306575    -0.72300
O450        O  0.40671990  0.52658773  0.08963673    -0.73100
O451        O  0.39512500  0.45617152  0.16121984    -0.72500
O452        O  0.43135133  0.52129100  0.11244898    -0.72900
O453        O  0.44104266  0.49028138  0.07341392    -0.72800
O454        O  0.41907440  0.46317958  0.04309149    -0.72600
C455        C  0.36960220  0.47659014  0.01745189     0.79200
C456        C  0.34953843  0.47907290  0.13537499     0.79600
C457        C  0.35889133  0.41513676  0.09289475     0.78600
C458        C  0.41555111  0.46439374  0.16292642     0.79000
C459        C  0.42486196  0.53389076  0.10351621     0.80100
C460        C  0.43807284  0.47815452  0.05065586     0.79200
Zn461      Zn  0.17402982  0.23133156  0.40166070     1.49700
Zn462      Zn  0.18932268  0.23180070  0.47059254     1.49400
Zn463      Zn  0.21521815  0.22717320  0.41498694     1.49100
Zn464      Zn  0.21837035  0.27179605  0.42584813     1.49500
O465        O  0.19910705  0.24052211  0.42842872    -1.82100
O466        O  0.14609505  0.21737291  0.42575317    -0.72700
O467        O  0.19311538  0.20681186  0.48316650    -0.72600
O468        O  0.20478308  0.21360819  0.37358817    -0.72100
O469        O  0.15737447  0.22121370  0.47406265    -0.72800
O470        O  0.17352578  0.21241206  0.36705955    -0.72400
O471        O  0.21087020  0.20367447  0.44400599    -0.72900
O472        O  0.24867564  0.28035369  0.41333752    -0.72300
O473        O  0.20579447  0.25721457  0.49981026    -0.73100
O474        O  0.24723312  0.24888501  0.41265346    -0.72500
O475        O  0.22274662  0.28479302  0.46740281    -0.72900
O476        O  0.20641030  0.28544281  0.39757930    -0.72800
O477        O  0.17564827  0.25723704  0.38137039    -0.72600
C478        C  0.14226632  0.21576172  0.45440156     0.79200
C479        C  0.20182333  0.19740215  0.46997612     0.79600
C480        C  0.18774287  0.20814405  0.35789147     0.78600
C481        C  0.25808607  0.26945473  0.41133293     0.79000
C482        C  0.21800495  0.27743625  0.49455681     0.80100
C483        C  0.18909755  0.27751490  0.38164415     0.79200
Zn484      Zn  0.26173897  0.41271005  0.70948759     1.49700
Zn485      Zn  0.28978856  0.41074606  0.76451437     1.49400
Zn486      Zn  0.30912915  0.42513972  0.69754617     1.49100
Zn487      Zn  0.29964424  0.45671700  0.73812159     1.49500
O488        O  0.29028196  0.42658295  0.72784992    -1.82100
O489        O  0.23986498  0.39311961  0.73987051    -0.72700
O490        O  0.30792758  0.39675851  0.75894958    -0.72600
O491        O  0.29294369  0.40578319  0.66189229    -0.72100
O492        O  0.25916802  0.38808861  0.77535264    -0.72800
O493        O  0.25874129  0.39401366  0.67331208    -0.72400
O494        O  0.32437384  0.41092101  0.71498334    -0.72900
O495        O  0.32696719  0.47647600  0.71459158    -0.72300
O496        O  0.30146592  0.43094529  0.80070313    -0.73100
O497        O  0.33172342  0.45471583  0.68394205    -0.72500
O498        O  0.30731459  0.46280284  0.78390395    -0.72900
O499        O  0.27676251  0.46413642  0.72421616    -0.72800
O500        O  0.25431171  0.43491736  0.69694106    -0.72600
C501        C  0.24102442  0.38398432  0.76421999     0.79200
C502        C  0.32144386  0.39913681  0.73832027     0.79600
C503        C  0.27282165  0.39330222  0.65669803     0.78600
C504        C  0.33754874  0.47357501  0.69374994     0.79000
C505        C  0.30747761  0.45072518  0.80536761     0.80100
C506        C  0.26066874  0.45408657  0.70592670     0.79200
Zn507      Zn  0.21843123  0.16913563  0.08250430     1.49700
Zn508      Zn  0.25200887  0.21292886  0.04627026     1.49400
Zn509      Zn  0.26239890  0.20741293  0.11504832     1.49100
Zn510      Zn  0.26528850  0.17870581  0.06329316     1.49500
O511        O  0.24917956  0.19189104  0.07696337    -1.82100
O512        O  0.19937933  0.17459394  0.05317122    -0.72700
O513        O  0.26448064  0.24266226  0.06442082    -0.72600
O514        O  0.23890609  0.19838873  0.14563435    -0.72100
O515        O  0.22302447  0.20406431  0.02757974    -0.72800
O516        O  0.20884534  0.17051510  0.12616529    -0.72400
O517        O  0.27636590  0.23989322  0.11011531    -0.72900
O518        O  0.28601277  0.18077438  0.09507380    -0.72300
O519        O  0.27332980  0.21690708  0.01337121    -0.73100
O520        O  0.28483995  0.20086833  0.13227121    -0.72500
O521        O  0.28324355  0.19347307  0.02647527    -0.72900
O522        O  0.24594325  0.14721281  0.05531593    -0.72800
O523        O  0.21365996  0.13892629  0.07287055    -0.72600
C524        C  0.20363051  0.18896763  0.03269514     0.79200
C525        C  0.27477679  0.25134627  0.08907071     0.79600
C526        C  0.21895299  0.18394192  0.14777805     0.78600
C527        C  0.29247381  0.18988129  0.12091382     0.79000
C528        C  0.28505164  0.20858333  0.00920132     0.80100
C529        C  0.22632505  0.13328195  0.06128976     0.79200
Zn530      Zn  0.41002005  0.25378595  0.78198880     1.49700
Zn531      Zn  0.45478152  0.29070550  0.75498012     1.49400
Zn532      Zn  0.40903083  0.28279161  0.72847640     1.49100
Zn533      Zn  0.42346607  0.30186338  0.79510217     1.49500
O534        O  0.42475235  0.28260038  0.76499131    -1.82100
O535        O  0.42969885  0.24239151  0.78846614    -0.72700
O536        O  0.46086732  0.29913094  0.70923391    -0.72600
O537        O  0.38640778  0.25284720  0.71529571    -0.72100
O538        O  0.46061797  0.26597904  0.76601645    -0.72800
O539        O  0.38817202  0.23319185  0.75299561    -0.72400
O540        O  0.42942798  0.29489608  0.69347475    -0.72900
O541        O  0.40978849  0.31810708  0.77742484    -0.72300
O542        O  0.47527014  0.31695272  0.78061344    -0.73100
O543        O  0.39527567  0.30095590  0.73375776    -0.72500
O544        O  0.45345108  0.32339060  0.80859642    -0.72900
O545        O  0.40528626  0.28568670  0.83210310    -0.72800
O546        O  0.39498483  0.25177372  0.82099420    -0.72600
C547        C  0.44874074  0.24803659  0.78000368     0.79200
C548        C  0.44890011  0.30013157  0.68821276     0.79600
C549        C  0.38045279  0.23455746  0.72746704     0.78600
C550        C  0.39811757  0.31499403  0.75374854     0.79000
C551        C  0.47237548  0.32793067  0.80091968     0.80100
C552        C  0.39444358  0.26555713  0.83843387     0.79200
Zn553      Zn  0.55251870  0.89761711  0.09014401     1.49700
Zn554      Zn  0.52613457  0.90303645  0.14371341     1.49400
Zn555      Zn  0.55671736  0.94289792  0.09995256     1.49100
Zn556      Zn  0.51303477  0.90360915  0.07288213     1.49500
O557        O  0.53687719  0.91175658  0.10181314    -1.82100
O558        O  0.54633364  0.87373107  0.11917455    -0.72700
O559        O  0.53940177  0.92892544  0.17275654    -0.72600
O560        O  0.58743387  0.95047285  0.09201259    -0.72100
O561        O  0.53075206  0.87886703  0.15922815    -0.72800
O562        O  0.58467831  0.91837851  0.09067656    -0.72400
O563        O  0.55783410  0.95601808  0.14026246    -0.72900
O564        O  0.51480539  0.93046513  0.05488869    -0.72300
O565        O  0.49394946  0.89086040  0.14353434    -0.73100
O566        O  0.54658445  0.95760688  0.07057175    -0.72500
O567        O  0.48422636  0.88771084  0.09463661    -0.72900
O568        O  0.51427610  0.88601312  0.03747241    -0.72800
O569        O  0.54370592  0.88457775  0.04828762    -0.72600
C570        C  0.53816618  0.86832613  0.14575042     0.79200
C571        C  0.55094351  0.94915892  0.16705844     0.79600
C572        C  0.59621524  0.93897087  0.09079209     0.78600
C573        C  0.52893830  0.95060053  0.05570451     0.79000
C574        C  0.47936929  0.88515005  0.12296903     0.80100
C575        C  0.52802597  0.88055427  0.03040313     0.79200
Zn576      Zn  0.60884882  0.09805437  0.43723435     1.49700
Zn577      Zn  0.65385502  0.10320810  0.42020486     1.49400
Zn578      Zn  0.61062973  0.05970503  0.40357329     1.49100
Zn579      Zn  0.62325185  0.10239930  0.36675033     1.49500
O580        O  0.62408020  0.09090365  0.40699815    -1.82100
O581        O  0.62801749  0.11446766  0.47334484    -0.72700
O582        O  0.66323268  0.08123104  0.41639111    -0.72600
O583        O  0.58610954  0.04399786  0.43255790    -0.72100
O584        O  0.65771689  0.11340092  0.46402766    -0.72800
O585        O  0.58438478  0.07076030  0.45504515    -0.72400
O586        O  0.63240894  0.05033564  0.40878434    -0.72900
O587        O  0.61190187  0.07929990  0.33358627    -0.72300
O588        O  0.67336341  0.12890701  0.39395357    -0.73100
O589        O  0.59808671  0.04958786  0.36214722    -0.72500
O590        O  0.65259658  0.12764029  0.35526840    -0.72900
O591        O  0.60285488  0.11353733  0.36824166    -0.72800
O592        O  0.59517614  0.11373688  0.41727839    -0.72600
C593        C  0.64654900  0.11790645  0.48171849     0.79200
C594        C  0.65289266  0.06082061  0.41229758     0.79600
C595        C  0.57729957  0.05071720  0.45105379     0.78600
C596        C  0.60087701  0.05875472  0.33628825     0.79000
C597        C  0.67089370  0.13652626  0.36884444     0.80100
C598        C  0.59327415  0.11759266  0.38924851     0.79200
Zn599      Zn  0.83345014  0.07964193  0.05561608     1.49700
Zn600      Zn  0.84049451  0.04257363  0.08277678     1.49400
Zn601      Zn  0.80319964  0.05031002  0.10860122     1.49100
Zn602      Zn  0.79845876  0.03148187  0.04123167     1.49500
O603        O  0.81886525  0.05067031  0.07229234    -1.82100
O604        O  0.86358308  0.08851997  0.04402866    -0.72700
O605        O  0.83889298  0.03461560  0.12827630    -0.72600
O606        O  0.80945103  0.08017963  0.11940818    -0.72100
O607        O  0.87104329  0.06639260  0.07009190    -0.72800
O608        O  0.83444794  0.10093573  0.08558942    -0.72400
O609        O  0.81257117  0.03969676  0.14463023    -0.72900
O610        O  0.76839852  0.01450027  0.05873960    -0.72300
O611        O  0.83409626  0.01620343  0.05811376    -0.73100
O612        O  0.77096484  0.03037616  0.10314201    -0.72500
O613        O  0.80717562  0.01033131  0.02666886    -0.72900
O614        O  0.79515229  0.04828957  0.00595477    -0.72800
O615        O  0.81799577  0.08224482  0.01902073    -0.72600
C616        C  0.87679847  0.08264528  0.05241857     0.79200
C617        C  0.82655366  0.03415110  0.14954345     0.79600
C618        C  0.82303582  0.09881783  0.10887768     0.78600
C619        C  0.75959099  0.01662369  0.08258458     0.79000
C620        C  0.82106209  0.00559804  0.03635024     0.80100
C621        C  0.80319497  0.06852644  0.00148865     0.79200
Zn622      Zn  0.73447445  0.12158589  0.76598447     1.49700
Zn623      Zn  0.73780249  0.16481612  0.74186972     1.49400
Zn624      Zn  0.69219957  0.12419501  0.75734816     1.49100
Zn625      Zn  0.72381636  0.14921956  0.81224503     1.49500
O626        O  0.72229156  0.14017209  0.76957769    -1.82100
O627        O  0.75992013  0.13358637  0.73706436    -0.72700
O628        O  0.71894502  0.16382074  0.70607825    -0.72600
O629        O  0.68115216  0.09241220  0.75530923    -0.72100
O630        O  0.76329026  0.16472719  0.72277539    -0.72800
O631        O  0.71157934  0.09162890  0.75365380    -0.72400
O632        O  0.68826575  0.13336586  0.71582661    -0.72900
O633        O  0.69463835  0.14431495  0.82717077    -0.72300
O634        O  0.75055657  0.19253446  0.76583628    -0.73100
O635        O  0.67375510  0.12877566  0.78661609    -0.72500
O636        O  0.74488453  0.18129960  0.81425319    -0.72900
O637        O  0.73493956  0.13403075  0.84041739    -0.72800
O638        O  0.74476868  0.11768290  0.80692482    -0.72600
C639        C  0.76992563  0.15133617  0.72231372     0.79200
C640        C  0.69979239  0.14930479  0.69826022     0.79600
C641        C  0.69099604  0.08200162  0.75274073     0.78600
C642        C  0.67637915  0.13643121  0.81349723     0.79000
C643        C  0.75352159  0.19646147  0.79445354     0.80100
C644        C  0.74338593  0.12256458  0.83441067     0.79200
Zn645      Zn  0.74633933  0.91998466  0.44899438     1.49700
Zn646      Zn  0.75834259  0.96719062  0.46214744     1.49400
Zn647      Zn  0.79078995  0.95817735  0.42326928     1.49100
Zn648      Zn  0.74442767  0.94698847  0.39432384     1.49500
O649        O  0.76029498  0.94854317  0.43175868    -1.82100
O650        O  0.72772865  0.91644179  0.48472204    -0.72700
O651        O  0.78813779  0.98985132  0.47742692    -0.72600
O652        O  0.79819223  0.93529526  0.43703830    -0.72100
O653        O  0.73882687  0.95017781  0.49787909    -0.72800
O654        O  0.76817939  0.91295301  0.46235044    -0.72400
O655        O  0.81047791  0.98499633  0.44838421    -0.72900
O656        O  0.76575874  0.96042702  0.35991915    -0.72300
O657        O  0.74411963  0.98215215  0.44286553    -0.73100
O658        O  0.79734395  0.96628869  0.37799619    -0.72500
O659        O  0.72984197  0.96478032  0.39921824    -0.72900
O660        O  0.72332554  0.91558608  0.38100948    -0.72800
O661        O  0.72815231  0.89763509  0.41846902    -0.72600
C662        C  0.72689598  0.92987671  0.50255071     0.79200
C663        C  0.80730472  0.99534621  0.46932627     0.79600
C664        C  0.78752546  0.91912192  0.45487376     0.78600
C665        C  0.78572812  0.96686203  0.35611630     0.79000
C666        C  0.73251297  0.97894220  0.41906217     0.80100
C667        C  0.71988687  0.89780129  0.39279402     0.79200
Zn668      Zn  0.57375804  0.83693460  0.77040276     1.49700
Zn669      Zn  0.56673197  0.87585168  0.75281389     1.49400
Zn670      Zn  0.61198709  0.87989619  0.74171163     1.49100
Zn671      Zn  0.57148579  0.84908382  0.69912210     1.49500
O672        O  0.58087712  0.86020619  0.74081278    -1.82100
O673        O  0.55744271  0.83882683  0.80690015    -0.72700
O674        O  0.58743891  0.90818809  0.75086952    -0.72600
O675        O  0.62752077  0.87104426  0.77162221    -0.72100
O676        O  0.55669331  0.86862870  0.79619734    -0.72800
O677        O  0.60092389  0.83961814  0.78887378    -0.72400
O678        O  0.61936677  0.91030438  0.74908298    -0.72900
O679        O  0.59687650  0.86307504  0.66900758    -0.72300
O680        O  0.54098574  0.86792482  0.72546915    -0.73100
O681        O  0.62444526  0.88114763  0.70089681    -0.72500
O682        O  0.54650599  0.85301979  0.68462886    -0.72900
O683        O  0.56037745  0.81692719  0.69992281    -0.72800
O684        O  0.55839815  0.80785127  0.74909219    -0.72600
C685        C  0.55348774  0.85353207  0.81469138     0.79200
C686        C  0.60805296  0.91927424  0.75031591     0.79600
C687        C  0.62093199  0.85406182  0.78782319     0.78600
C688        C  0.61721897  0.87483698  0.67400930     0.79000
C689        C  0.53555880  0.85969509  0.69880402     0.80100
C690        C  0.55569413  0.80272465  0.72079993     0.79200
Zn691      Zn  0.18649779  0.94584853  0.97336502     1.49700
Zn692      Zn  0.21801185  0.93869323  0.92972450     1.49400
Zn693      Zn  0.17521232  0.93346481  0.90291400     1.49100
Zn694      Zn  0.21439670  0.97989205  0.92071569     1.49500
O695        O  0.19840432  0.94952317  0.93211484    -1.82100
O696        O  0.20036581  0.93384312  0.00254132    -0.72700
O697        O  0.20870815  0.91453521  0.89981720    -0.72600
O698        O  0.14617851  0.92097639  0.92194991    -0.72100
O699        O  0.21980881  0.92721525  0.97008086    -0.72800
O700        O  0.15397444  0.92523685  0.97174591    -0.72400
O701        O  0.17603685  0.90799101  0.88671142    -0.72900
O702        O  0.20675708  0.98363087  0.87755005    -0.72300
O703        O  0.24831511  0.96206395  0.92173332    -0.73100
O704        O  0.17802091  0.95168422  0.86662609    -0.72500
O705        O  0.24694240  0.99218637  0.92249059    -0.72900
O706        O  0.20683009  0.99667579  0.94954164    -0.72800
O707        O  0.19091525  0.97446980  0.98895390    -0.72600
C708        C  0.21311113  0.92679490  0.99700310     0.79200
C709        C  0.19067288  0.90307693  0.88620928     0.79600
C710        C  0.14030529  0.91752712  0.94977128     0.78600
C711        C  0.19184084  0.97103374  0.85905683     0.79000
C712        C  0.25772619  0.98259154  0.92176597     0.80100
C713        C  0.19825050  0.99286870  0.97598415     0.79200
Zn714      Zn  0.29198671  0.87747067  0.27281770     1.49700
Zn715      Zn  0.26270229  0.84579580  0.22155799     1.49400
Zn716      Zn  0.30957272  0.88166841  0.20520171     1.49100
Zn717      Zn  0.30112728  0.84103427  0.24814072     1.49500
O718        O  0.29177895  0.86155893  0.23711287    -1.82100
O719        O  0.26167931  0.86594332  0.28896025    -0.72700
O720        O  0.25819664  0.85989182  0.18523724    -0.72600
O721        O  0.32375802  0.91236876  0.22032256    -0.72100
O722        O  0.24149486  0.84238940  0.25304259    -0.72800
O723        O  0.30688167  0.90955228  0.26391857    -0.72400
O724        O  0.29165485  0.88142242  0.16895342    -0.72900
O725        O  0.32776214  0.84848619  0.22309205    -0.72300
O726        O  0.25532919  0.81634731  0.20993936    -0.73100
O727        O  0.33252730  0.87522659  0.19217641    -0.72500
O728        O  0.27799102  0.80988321  0.23642646    -0.72900
O729        O  0.30973897  0.84397517  0.29363787    -0.72800
O730        O  0.30829414  0.87312698  0.30657943    -0.72600
C731        C  0.24329218  0.85147557  0.27859482     0.79200
C732        C  0.27129277  0.87324179  0.16573654     0.79600
C733        C  0.31996083  0.92109194  0.24283995     0.78600
C734        C  0.33810634  0.86195337  0.20166102     0.79000
C735        C  0.26161659  0.80356867  0.21872558     0.80100
C736        C  0.31316271  0.85880089  0.31278248     0.79200
Zn737      Zn  0.36045029  0.90099427  0.58917108     1.49700
Zn738      Zn  0.40359894  0.94561808  0.60139320     1.49400
Zn739      Zn  0.39219986  0.90542484  0.64411775     1.49100
Zn740      Zn  0.40496203  0.90457929  0.57491864     1.49500
O741        O  0.39036086  0.91421810  0.60252139    -1.82100
O742        O  0.35087554  0.92274495  0.58803945    -0.72700
O743        O  0.41547955  0.95872443  0.64257823    -0.72600
O744        O  0.36282166  0.88199166  0.65793950    -0.72100
O745        O  0.38165282  0.95431065  0.59107507    -0.72800
O746        O  0.34120318  0.87749937  0.61840997    -0.72400
O747        O  0.40454108  0.93070098  0.67395942    -0.72900
O748        O  0.41592904  0.88697330  0.59672682    -0.72300
O749        O  0.42874450  0.95897876  0.57255360    -0.73100
O750        O  0.41142788  0.89263444  0.64526017    -0.72500
O751        O  0.43123557  0.93067480  0.55889138    -0.72900
O752        O  0.38686082  0.88935911  0.53728617    -0.72800
O753        O  0.35636104  0.88887020  0.54650869    -0.72600
C754        C  0.36112075  0.94333999  0.58814259     0.79200
C755        C  0.41401822  0.95106919  0.66934557     0.79600
C756        C  0.34428505  0.87221782  0.64502033     0.78600
C757        C  0.41893202  0.88543885  0.62522098     0.79000
C758        C  0.43851323  0.95094423  0.55866851     0.80100
C759        C  0.36810537  0.88519825  0.52878840     0.79200
Zn760      Zn  0.50442742  0.10049668  0.94156174     1.49700
Zn761      Zn  0.49205033  0.10308436  0.87132363     1.49400
Zn762      Zn  0.46191686  0.06102168  0.91289812     1.49100
Zn763      Zn  0.46406120  0.10580703  0.92567619     1.49500
O764        O  0.48065572  0.09265576  0.91265263    -1.82100
O765        O  0.53333855  0.11769951  0.92098049    -0.72700
O766        O  0.47906847  0.07800493  0.84082529    -0.72600
O767        O  0.47245634  0.04617759  0.94209739    -0.72100
O768        O  0.52473081  0.11590362  0.87169688    -0.72800
O769        O  0.50409683  0.07392451  0.95699672    -0.72400
O770        O  0.46145608  0.04934407  0.87122422    -0.72900
O771        O  0.43201586  0.08337590  0.92601962    -0.72300
O772        O  0.48583391  0.12659579  0.85714789    -0.73100
O773        O  0.43078643  0.05206278  0.92093595    -0.72500
O774        O  0.46833899  0.12971264  0.89658780    -0.72900
O775        O  0.47313837  0.11836178  0.96827733    -0.72800
O776        O  0.50212785  0.11594124  0.97878837    -0.72600
C777        C  0.53882750  0.12098705  0.89293325     0.79200
C778        C  0.46800300  0.05752358  0.84479155     0.79600
C779        C  0.49045755  0.05370213  0.95625422     0.78600
C780        C  0.42126196  0.06277782  0.92419071     0.79000
C781        C  0.47672635  0.13573880  0.87011830     0.80100
C782        C  0.48844685  0.12136345  0.98635954     0.79200
Zn783      Zn  0.23517152  0.05085948  0.53031148     1.49700
Zn784      Zn  0.23336944  0.01833404  0.58205087     1.49400
Zn785      Zn  0.27685259  0.06136011  0.57036807     1.49100
Zn786      Zn  0.23773947  0.06245399  0.60171702     1.49500
O787        O  0.24572689  0.04837323  0.57087329    -1.82100
O788        O  0.21025009  0.02172898  0.51656087    -0.72700
O789        O  0.25506357  0.00844574  0.58062301    -0.72600
O790        O  0.28756756  0.07271920  0.52910672    -0.72100
O791        O  0.20884987  0.00025897  0.55421307    -0.72800
O792        O  0.25961326  0.06404070  0.49853991    -0.72400
O793        O  0.28607981  0.03974006  0.57819928    -0.72900
O794        O  0.26440426  0.08723094  0.61967734    -0.72300
O795        O  0.22128509  0.01280887  0.62423629    -0.73100
O796        O  0.29210382  0.08655745  0.59890935    -0.72500
O797        O  0.22111021  0.04251809  0.63667174    -0.72900
O798        O  0.22162992  0.07578798  0.58327235    -0.72800
O799        O  0.22291390  0.07036651  0.53344610    -0.72600
C800        C  0.20133283  0.00318877  0.52940692     0.79200
C801        C  0.27567382  0.01918734  0.58010033     0.79600
C802        C  0.27999617  0.07270355  0.50278716     0.78600
C803        C  0.28465510  0.09511073  0.61666619     0.79000
C804        C  0.21682308  0.02341624  0.64296880     0.80100
C805        C  0.21807904  0.07857673  0.55553534     0.79200
Zn806      Zn  0.46164889  0.16357198  0.26338805     1.49700
Zn807      Zn  0.42757318  0.12245387  0.30488002     1.49400
Zn808      Zn  0.41954355  0.16001497  0.28923882     1.49100
Zn809      Zn  0.41505685  0.12821042  0.23730580     1.49500
O810        O  0.43129029  0.14336524  0.27348363    -1.82100
O811        O  0.48008356  0.15602312  0.28991278    -0.72700
O812        O  0.40692515  0.12031296  0.33837082    -0.72600
O813        O  0.44270999  0.18901903  0.30294856    -0.72100
O814        O  0.45696491  0.12955328  0.32074231    -0.72800
O815        O  0.47028789  0.19474369  0.27349650    -0.72400
O816        O  0.39883640  0.14471246  0.32307654    -0.72900
O817        O  0.39508036  0.13873451  0.22372661    -0.72300
O818        O  0.41257891  0.09234911  0.28729839    -0.73100
O819        O  0.40278027  0.16484695  0.25717458    -0.72500
O820        O  0.39862135  0.09590252  0.24373454    -0.72900
O821        O  0.43558181  0.13409726  0.20291592    -0.72800
O822        O  0.46779414  0.16075579  0.21846115    -0.72600
C823        C  0.47625319  0.14266051  0.31173184     0.79200
C824        C  0.39563813  0.12931959  0.34081606     0.79600
C825        C  0.46141202  0.20155849  0.29194945     0.78600
C826        C  0.39310079  0.15436572  0.23319206     0.79000
C827        C  0.40050631  0.08405849  0.26384967     0.80100
C828        C  0.45557117  0.14736703  0.19799177     0.79200
C829        C  0.33325760  0.10103788  0.46014447     0.14700
C830        C  0.32650336  0.09848888  0.42957945     0.01600
C831        C  0.30432099  0.08906623  0.42279694     0.16600
C832        C  0.28898748  0.08116482  0.44645554     0.26000
C833        C  0.29572224  0.08270383  0.47723436    -0.40300
C834        C  0.31818836  0.09337267  0.48366762     0.33100
C835        C  0.34296803  0.10534920  0.40528752     0.01700
F836        F  0.29749129  0.08689787  0.39328340    -0.12600
F837        F  0.32585533  0.09628540  0.51282079    -0.13100
C838        C  0.35569380  0.09571266  0.40338101     0.16600
C839        C  0.37292867  0.10356999  0.38282667     0.26000
C840        C  0.37784117  0.12134257  0.36365492    -0.40200
C841        C  0.36467950  0.13070632  0.36537731     0.33000
C842        C  0.34744008  0.12273979  0.38596431     0.14700
F843        F  0.35144290  0.07866999  0.42170395    -0.12600
F844        F  0.36842090  0.14767993  0.34726875    -0.13100
F845        F  0.38471847  0.09367927  0.38181931    -0.15400
F846        F  0.33551905  0.13247095  0.38770352    -0.14000
F847        F  0.35466580  0.11092594  0.46726458    -0.14000
F848        F  0.26765227  0.07161947  0.43912990    -0.15400
C849        C  0.49533090  0.12963568  0.07230277     0.14700
C850        C  0.48548428  0.14189842  0.07760193     0.01600
C851        C  0.47909336  0.14963699  0.05247875     0.16600
C852        C  0.48106174  0.14387363  0.02261079     0.26000
C853        C  0.48961695  0.13037905  0.01732412    -0.40300
C854        C  0.49748890  0.12400098  0.04246981     0.33100
C855        C  0.47905935  0.14384681  0.10906908     0.01700
F856        F  0.46966537  0.16163232  0.05696390    -0.12600
F857        F  0.50590107  0.11104201  0.03847398    -0.13100
C858        C  0.48720100  0.16406696  0.12336352     0.16600
C859        C  0.48008951  0.16537543  0.15272884     0.26000
C860        C  0.46444838  0.14649234  0.16788139    -0.40200
C861        C  0.45647866  0.12633154  0.15345689     0.33000
C862        C  0.46375110  0.12504139  0.12448105     0.14700
F863        F  0.50194012  0.18248352  0.10884934    -0.12600
F864        F  0.44165589  0.10772490  0.16754038    -0.13100
F865        F  0.48784264  0.18509499  0.16580219    -0.15400
F866        F  0.45534040  0.10535214  0.11100493    -0.14000
F867        F  0.50193714  0.12225396  0.09623484    -0.14000
F868        F  0.47403126  0.15101464  0.99890127    -0.15400
C869        C  0.32033097  0.00661458  0.56888844     0.14700
C870        C  0.31160917  0.98626706  0.58298821     0.01600
C871        C  0.29086320  0.97658657  0.59598217     0.16600
C872        C  0.27904554  0.98715844  0.59496264     0.26000
C873        C  0.28789836  0.00771310  0.58116028    -0.40300
C874        C  0.30865619  0.01726678  0.56803165     0.33100
C875        C  0.32427740  0.97527514  0.58411508     0.01700
F876        F  0.28224917  0.95709371  0.61025803    -0.12600
F877        F  0.31749775  0.03671471  0.55357672    -0.13100
C878        C  0.34486625  0.98548481  0.59794569     0.16600
C879        C  0.35706507  0.97535284  0.59860654     0.26000
C880        C  0.34877967  0.95465180  0.58571184    -0.40200
C881        C  0.32814061  0.94448449  0.57177325     0.33000
C882        C  0.31605465  0.95475030  0.57091349     0.14700
F883        F  0.35296450  0.00511490  0.61148138    -0.12600
F884        F  0.31975024  0.92473127  0.55851292    -0.13100
F885        F  0.37667577  0.98553827  0.61281324    -0.15400
F886        F  0.29644769  0.94480368  0.55669276    -0.14000
F887        F  0.34006723  0.01601642  0.55538188    -0.14000
F888        F  0.25918626  0.97749555  0.60812629    -0.15400
C889        C  0.42179181  0.97580268  0.74837464     0.14700
C890        C  0.44002919  0.99661373  0.74400251     0.01600
C891        C  0.45006902  0.00196968  0.71518169     0.16600
C892        C  0.44169481  0.98712602  0.69105225     0.26000
C893        C  0.42340356  0.96635091  0.69539097    -0.40300
C894        C  0.41375531  0.96074012  0.72445978     0.33100
C895        C  0.44834568  0.01273050  0.76934233     0.01700
F896        F  0.46820311  0.02152609  0.71043882    -0.12600
F897        F  0.39595421  0.94097619  0.72943497    -0.13100
C898        C  0.45259193  0.00713809  0.79837371     0.16600
C899        C  0.45917760  0.02177211  0.82268979     0.26000
C900        C  0.46225570  0.04261347  0.81839064    -0.40200
C901        C  0.45876973  0.04851487  0.78908890     0.33000
C902        C  0.45163708  0.03364354  0.76491738     0.14700
F903        F  0.45051758  0.98748588  0.80320128    -0.12600
F904        F  0.46128186  0.06833258  0.78412293    -0.13100
F905        F  0.46273580  0.01554941  0.85046559    -0.15400
F906        F  0.44715088  0.03944326  0.73745866    -0.14000
F907        F  0.41124964  0.97025478  0.77556150    -0.14000
F908        F  0.45173481  0.99300938  0.66349750    -0.15400
C909        C  0.33121434  0.86350020  0.45886918     0.14700
C910        C  0.34582712  0.86600279  0.43587179     0.01600
C911        C  0.36745019  0.87328998  0.44377182     0.16600
C912        C  0.37454171  0.87858996  0.47416506     0.26000
C913        C  0.36011159  0.87693078  0.49727122    -0.40300
C914        C  0.33823239  0.86893713  0.48921098     0.33100
C915        C  0.33901557  0.86348914  0.40335065     0.01700
F916        F  0.38186775  0.87593373  0.42179334    -0.12600
F917        F  0.32364041  0.86694669  0.51047161    -0.13100
C918        C  0.34601385  0.88202844  0.38518859     0.16600
C919        C  0.33801951  0.88029989  0.35546428     0.26000
C920        C  0.32307414  0.85992581  0.34307126    -0.40200
C921        C  0.31664487  0.84123100  0.36086239     0.33000
C922        C  0.32441287  0.84303823  0.39095760     0.14700
F923        F  0.35994814  0.90195695  0.39676954    -0.12600
F924        F  0.30196902  0.82138941  0.34977174    -0.13100
F925        F  0.34472389  0.89865691  0.33884171    -0.15400
F926        F  0.31736886  0.82492107  0.40824223    -0.14000
F927        F  0.31032446  0.85687244  0.45161992    -0.14000
F928        F  0.39579302  0.88638795  0.48052935    -0.15400
C929        C  0.33463061  0.97774638  0.26716339     0.14700
C930        C  0.35286748  0.99079596  0.24902861     0.01600
C931        C  0.35973661  0.98087153  0.22797399     0.16600
C932        C  0.34884856  0.95831085  0.22551341     0.26000
C933        C  0.33100402  0.94511015  0.24448455    -0.40300
C934        C  0.32388926  0.95518142  0.26508599     0.33100
C935        C  0.36501619  0.01468353  0.25269292     0.01700
F936        F  0.37745233  0.99301123  0.21037490    -0.12600
F937        F  0.30635958  0.94327036  0.28309771    -0.13100
C938        C  0.37283898  0.02393426  0.28165421     0.16600
C939        C  0.38425392  0.04640736  0.28533534     0.26000
C940        C  0.38836444  0.06018471  0.25998506    -0.40200
C941        C  0.38064546  0.05086339  0.23093105     0.33000
C942        C  0.36900625  0.02836204  0.22738021     0.14700
F943        F  0.36969835  0.01117111  0.30642369    -0.12600
F944        F  0.38460062  0.06349104  0.20575944    -0.13100
F945        F  0.39095769  0.05459644  0.31388421    -0.15400
F946        F  0.36136509  0.01993327  0.19919668    -0.14000
F947        F  0.32706083  0.98689270  0.28679469    -0.14000
F948        F  0.35618601  0.94948467  0.20495790    -0.15400
C949        C  0.20136478  0.98711659  0.71273283     0.14700
C950        C  0.19581752  0.99822663  0.73361887     0.01600
C951        C  0.19485977  0.01631769  0.72363320     0.16600
C952        C  0.20069646  0.02402662  0.69370277     0.26000
C953        C  0.20751377  0.01364679  0.67315999    -0.40300
C954        C  0.20694348  0.99458300  0.68277406     0.33100
C955        C  0.19283777  0.99189125  0.76626022     0.01700
F956        F  0.18872780  0.02681660  0.74313845    -0.12600
F957        F  0.21283261  0.98361873  0.66376920    -0.13100
C958        C  0.20628573  0.00681213  0.78857910     0.16600
C959        C  0.20535836  0.00031752  0.81898336     0.26000
C960        C  0.19109849  0.97862659  0.82764676    -0.40200
C961        C  0.17717403  0.96386247  0.80524180     0.33000
C962        C  0.17799105  0.97050393  0.77495257     0.14700
F963        F  0.22119218  0.02746211  0.78063647    -0.12600
F964        F  0.16331784  0.94271858  0.81216116    -0.13100
F965        F  0.21898625  0.01520757  0.83962587    -0.15400
F966        F  0.16461303  0.95584627  0.75386912    -0.14000
F967        F  0.20266338  0.96971319  0.72182000    -0.14000
F968        F  0.20012218  0.04191798  0.68518459    -0.15400
C969        C  0.36359023  0.05042297  0.93593210     0.14700
C970        C  0.35140894  0.02973254  0.92293728     0.01600
C971        C  0.36222271  0.01977652  0.91087687     0.16600
C972        C  0.38483171  0.03027693  0.91184331     0.26000
C973        C  0.39718154  0.05111843  0.92474090    -0.40300
C974        C  0.38623562  0.06103970  0.93680461     0.33100
C975        C  0.32740820  0.01812213  0.92289352     0.01700
F976        F  0.35084150  0.99995422  0.89761606    -0.12600
F977        F  0.39739182  0.08090356  0.94993962    -0.13100
C978        C  0.31611780  0.02697608  0.90837058     0.16600
C979        C  0.29340437  0.01563140  0.90814901     0.26000
C980        C  0.28167990  0.99515870  0.92216147    -0.40200
C981        C  0.29307904  0.98650242  0.93695715     0.33000
C982        C  0.31566356  0.99789966  0.93740314     0.14700
F983        F  0.32708861  0.04635304  0.89376304    -0.12600
F984        F  0.28235177  0.96716714  0.95176514    -0.13100
F985        F  0.28291661  0.02435370  0.89348477    -0.15400
F986        F  0.32611679  0.98931077  0.95252096    -0.14000
F987        F  0.35351044  0.06016818  0.94842153    -0.14000
F988        F  0.39457775  0.02020169  0.89932540    -0.15400
C989        C  0.24552512  0.90625976  0.03919125     0.14700
C990        C  0.23676435  0.90246531  0.06870426     0.01600
C991        C  0.21983669  0.90638445  0.07462599     0.16600
C992        C  0.21190447  0.91407295  0.05142478     0.26000
C993        C  0.22093722  0.91823982  0.02190358    -0.40300
C994        C  0.23794859  0.91426258  0.01619999     0.33100
C995        C  0.24558012  0.89469544  0.09319378     0.01700
F996        F  0.21125401  0.90319362  0.10308130    -0.12600
F997        F  0.24763492  0.91833902  0.98841008    -0.13100
C998        C  0.26794938  0.90583096  0.09945529     0.16600
C999        C  0.27640922  0.89842925  0.12215854     0.26000
C1000       C  0.26261001  0.87993730  0.13965918    -0.40200
C1001       C  0.24016972  0.86874411  0.13320092     0.33000
C1002       C  0.23181832  0.87596815  0.11007262     0.14700
F1003       F  0.28163353  0.92429814  0.08408995    -0.12600
F1004       F  0.22616739  0.85074275  0.14920555    -0.13100
F1005       F  0.29808279  0.90985991  0.12753577    -0.15400
F1006       F  0.21024723  0.86445154  0.10391246    -0.14000
F1007       F  0.26139851  0.90200408  0.03243204    -0.14000
F1008       F  0.19538908  0.91738780  0.05795341    -0.15400
C1009       C  0.45148421  0.85697885  0.62451860     0.14700
C1010       C  0.46217065  0.86329668  0.65299719     0.01600
C1011       C  0.45720382  0.87537206  0.67297536     0.16600
C1012       C  0.44245960  0.88164939  0.66443775     0.26000
C1013       C  0.43240880  0.87624134  0.63538721    -0.40300
C1014       C  0.43674450  0.86340372  0.61575924     0.33100
C1015       C  0.47947613  0.85869246  0.66172066     0.01700
F1016       F  0.46753966  0.88212995  0.70036755    -0.12600
F1017       F  0.42684389  0.85715515  0.58801533    -0.13100
C1018       C  0.49839747  0.86683953  0.64404551     0.16600
C1019       C  0.51641635  0.86619297  0.65531512     0.26000
C1020       C  0.51586311  0.85770573  0.68459848    -0.40200
C1021       C  0.49656896  0.84853548  0.70146417     0.33000
C1022       C  0.47846262  0.84873657  0.68995633     0.14700
F1023       F  0.49996641  0.87675879  0.61684550    -0.12600
F1024       F  0.49539821  0.83969454  0.72944432    -0.13100
F1025       F  0.53487910  0.87526570  0.63860795    -0.15400
F1026       F  0.46011802  0.83990028  0.70692881    -0.14000
F1027       F  0.45540533  0.84469815  0.60514294    -0.14000
F1028       F  0.43898624  0.89405957  0.68419131    -0.15400
C1029       C  0.67078247  0.90093034  0.63142802     0.14700
C1030       C  0.66399573  0.89706901  0.60080218     0.01600
C1031       C  0.64170761  0.88517793  0.59407855     0.16600
C1032       C  0.62640373  0.87763426  0.61767599     0.26000
C1033       C  0.63314715  0.88182772  0.64854125    -0.40300
C1034       C  0.65563672  0.89342776  0.65501386     0.33100
C1035       C  0.68027024  0.90548574  0.57599020     0.01700
F1036       F  0.63475267  0.88129662  0.56455846    -0.12600
F1037       F  0.66321450  0.89761245  0.68424129    -0.13100
C1038       C  0.68139605  0.89119174  0.55545952     0.16600
C1039       C  0.69672892  0.89905095  0.53204006     0.26000
C1040       C  0.71136534  0.92153276  0.52856672    -0.40200
C1041       C  0.71040509  0.93579293  0.54968146     0.33000
C1042       C  0.69501014  0.92781979  0.57309759     0.14700
F1043       F  0.66778561  0.86949498  0.55836797    -0.12600
F1044       F  0.72425753  0.95749638  0.54773485    -0.13100
F1045       F  0.69701163  0.88448973  0.51268948    -0.15400
F1046       F  0.69424340  0.94198925  0.59271437    -0.14000
F1047       F  0.69221835  0.91181090  0.63856568    -0.14000
F1048       F  0.60504673  0.86655472  0.61016610    -0.15400
C1049       C  0.61904874  0.12355004  0.82874571     0.14700
C1050       C  0.62198412  0.13744823  0.85307285     0.01600
C1051       C  0.64280879  0.15032718  0.86571896     0.16600
C1052       C  0.66054611  0.14976312  0.85348852     0.26000
C1053       C  0.65769494  0.13622636  0.82842990    -0.40300
C1054       C  0.63658344  0.12287433  0.81660508     0.33100
C1055       C  0.60288146  0.13756914  0.86547074     0.01700
F1056       F  0.64602612  0.16377354  0.88945129    -0.12600
F1057       F  0.63271084  0.10887124  0.79335895    -0.13100
C1058       C  0.59570554  0.13011420  0.89526552     0.16600
C1059       C  0.57544117  0.12609032  0.90493044     0.26000
C1060       C  0.56185358  0.12932598  0.88481346    -0.40200
C1061       C  0.56981783  0.13829030  0.85570690     0.33000
C1062       C  0.59015463  0.14241547  0.84619873     0.14700
F1063       F  0.60758961  0.12514384  0.91425692    -0.12600
F1064       F  0.55765898  0.14242152  0.83600911    -0.13100
F1065       F  0.56852262  0.11744274  0.93319918    -0.15400
F1066       F  0.59709015  0.15031649  0.81760381    -0.14000
F1067       F  0.59896120  0.11024470  0.81696951    -0.14000
F1068       F  0.68051789  0.16286092  0.86570880    -0.15400
C1069       C  0.67572312  0.02335544  0.75780591     0.14700
C1070       C  0.65384503  0.01252996  0.74899163     0.01600
C1071       C  0.64424208  0.02459722  0.74048814     0.16600
C1072       C  0.65635624  0.04723580  0.74104526     0.26000
C1073       C  0.67833232  0.05813845  0.75002842    -0.40300
C1074       C  0.68788450  0.04588653  0.75817504     0.33100
C1075       C  0.64132427  0.98863431  0.74846809     0.01700
F1076       F  0.62321645  0.01445053  0.73126944    -0.12600
F1077       F  0.70884980  0.05562209  0.76759274    -0.13100
C1078       C  0.62274557  0.97694941  0.76659981     0.16600
C1079       C  0.61170245  0.95429613  0.76715851     0.26000
C1080       C  0.61929605  0.94310147  0.74989389    -0.40200
C1081       C  0.63783467  0.95487383  0.73168047     0.33000
C1082       C  0.64861487  0.97740862  0.73077888     0.14700
F1083       F  0.61574495  0.98749898  0.78450189    -0.12600
F1084       F  0.64528673  0.94453378  0.71417644    -0.13100
F1085       F  0.59411768  0.94335902  0.78541815    -0.15400
F1086       F  0.66617835  0.98833436  0.71245350    -0.14000
F1087       F  0.68521983  0.01203944  0.76685816    -0.14000
F1088       F  0.64659847  0.05841596  0.73256003    -0.15400
C1089       C  0.82610936  0.00108082  0.29428850     0.14700
C1090       C  0.81273409  0.99497397  0.26823136     0.01600
C1091       C  0.79088750  0.97871906  0.27076393     0.16600
C1092       C  0.78228089  0.96917606  0.29911700     0.26000
C1093       C  0.79546412  0.97556676  0.32560214    -0.40300
C1094       C  0.81761450  0.99133484  0.32272018     0.33100
C1095       C  0.82060765  0.00696177  0.23902186     0.01700
F1096       F  0.77763625  0.97274963  0.24588089    -0.12600
F1097       F  0.83081063  0.99817747  0.34766332    -0.13100
C1098       C  0.82476072  0.99764218  0.21375527     0.16600
C1099       C  0.82846649  0.00741708  0.18477260     0.26000
C1100       C  0.82754590  0.02636620  0.18063678    -0.40200
C1101       C  0.82452878  0.03622117  0.20636573     0.33000
C1102       C  0.82124294  0.02667127  0.23530891     0.14700
F1103       F  0.82418604  0.97855952  0.21691384    -0.12600
F1104       F  0.82397416  0.05474055  0.20326643    -0.13100
F1105       F  0.83122472  0.99745529  0.16041095    -0.15400
F1106       F  0.81730479  0.03595370  0.25944610    -0.14000
F1107       F  0.84724168  0.01692754  0.29232789    -0.14000
F1108       F  0.76091348  0.95388087  0.30064477    -0.15400
C1109       C  0.75832954  0.11138723  0.91379317     0.14700
C1110       C  0.76791780  0.09911687  0.90664508     0.01600
C1111       C  0.76932925  0.09457013  0.87586558     0.16600
C1112       C  0.76133531  0.10206809  0.85260954     0.26000
C1113       C  0.75176967  0.11453362  0.85951496    -0.40300
C1114       C  0.75035680  0.11903403  0.89053429     0.33100
C1115       C  0.77677428  0.09125904  0.93106347     0.01700
F1116       F  0.77892927  0.08317343  0.86819507    -0.12600
F1117       F  0.74120209  0.13077160  0.89854885    -0.13100
C1118       C  0.76943791  0.06907187  0.93403879     0.16600
C1119       C  0.77826099  0.06169653  0.95636433     0.26000
C1120       C  0.79466644  0.07638064  0.97639191    -0.40200
C1121       C  0.80196642  0.09868363  0.97324622     0.33000
C1122       C  0.79310833  0.10596557  0.95087149     0.14700
F1123       F  0.75338118  0.05442611  0.91557973    -0.12600
F1124       F  0.81757934  0.11361418  0.99196496    -0.13100
F1125       F  0.77050759  0.04010125  0.95842547    -0.15400
F1126       F  0.80078334  0.12752826  0.94823660    -0.14000
F1127       F  0.75638816  0.11571104  0.94341293    -0.14000
F1128       F  0.76315934  0.09709936  0.82327678    -0.15400
C1129       C  0.66260200  0.13151434  0.62893024     0.14700
C1130       C  0.67644804  0.14537015  0.60608428     0.01600
C1131       C  0.69713479  0.16240211  0.61440966     0.16600
C1132       C  0.70438487  0.16467719  0.64479521     0.26000
C1133       C  0.69101836  0.14986646  0.66746249    -0.40300
C1134       C  0.66967720  0.13382134  0.65926631     0.33100
C1135       C  0.66989480  0.14065587  0.57344855     0.01700
F1136       F  0.71058229  0.17644642  0.59287082    -0.12600
F1137       F  0.65579127  0.11958332  0.68027845    -0.13100
C1138       C  0.65066667  0.13912486  0.56283451     0.16600
C1139       C  0.64327888  0.13222329  0.53293358     0.26000
C1140       C  0.65506205  0.12673998  0.51286978    -0.40200
C1141       C  0.67467088  0.12886666  0.52352526     0.33000
C1142       C  0.68193127  0.13570550  0.55342452     0.14700
F1143       F  0.63883813  0.14402739  0.58165785    -0.12600
F1144       F  0.68659960  0.12362379  0.50547938    -0.13100
F1145       F  0.62432873  0.13051048  0.52400932    -0.15400
F1146       F  0.70025885  0.13644756  0.56332396    -0.14000
F1147       F  0.64261263  0.11477107  0.62156400    -0.14000
F1148       F  0.72482831  0.18077193  0.65157454    -0.15400
C1149       C  0.53337058  0.15798117  0.33568139     0.14700
C1150       C  0.52956198  0.13916013  0.35105960     0.01600
C1151       C  0.50822222  0.12188048  0.35442065     0.16600
C1152       C  0.49091247  0.12320863  0.34226251     0.26000
C1153       C  0.49459459  0.14190967  0.32634666    -0.40300
C1154       C  0.51607267  0.15937789  0.32340714     0.33100
C1155       C  0.54775785  0.13669080  0.36173841     0.01700
F1156       F  0.50421419  0.10324450  0.36831182    -0.12600
F1157       F  0.52042242  0.17781782  0.30858100    -0.13100
C1158       C  0.54951688  0.13234696  0.39264767     0.16600
C1159       C  0.56492430  0.12706861  0.40198520     0.26000
C1160       C  0.57889424  0.12601412  0.38044683    -0.40200
C1161       C  0.57769087  0.13145521  0.34965348     0.33000
C1162       C  0.56226237  0.13668245  0.34047478     0.14700
F1163       F  0.53586202  0.13264521  0.41367861    -0.12600
F1164       F  0.59089003  0.13099498  0.32797959    -0.13100
F1165       F  0.56543775  0.12210234  0.43188561    -0.15400
F1166       F  0.56069223  0.14055035  0.31038401    -0.14000
F1167       F  0.55388880  0.17495836  0.33239356    -0.14000
F1168       F  0.47064340  0.10571584  0.34492411    -0.15400
C1169       C  0.53713737  0.02207484  0.51414390     0.14700
C1170       C  0.51905857  0.00681293  0.49732545     0.01600
C1171       C  0.52054465  0.00528353  0.46556494     0.16600
C1172       C  0.53987873  0.01921623  0.45060361     0.26000
C1173       C  0.55780017  0.03491145  0.46728695    -0.40300
C1174       C  0.55642861  0.03617502  0.49914138     0.33100
C1175       C  0.49849942  0.99262846  0.51283749     0.01700
F1176       F  0.50305526  0.99075616  0.44902771    -0.12600
F1177       F  0.57381887  0.05090003  0.51563489    -0.13100
C1178       C  0.48637850  0.00117930  0.52464856     0.16600
C1179       C  0.46673555  0.98767704  0.53926519     0.26000
C1180       C  0.45897690  0.96532650  0.54234877    -0.40200
C1181       C  0.47134512  0.95691419  0.53023988     0.33000
C1182       C  0.49087996  0.97048203  0.51554508     0.14700
F1183       F  0.49348409  0.02260549  0.52163128    -0.12600
F1184       F  0.46482400  0.93560224  0.53290022    -0.13100
F1185       F  0.45538562  0.99654821  0.55022343    -0.15400
F1186       F  0.50258377  0.96207033  0.50431728    -0.14000
F1187       F  0.53604017  0.02322548  0.54502445    -0.14000
F1188       F  0.54081101  0.01810236  0.41968281    -0.15400
C1189       C  0.69883171  0.04942923  0.40558823     0.14700
C1190       C  0.68781920  0.02678359  0.40831655     0.01600
C1191       C  0.66521107  0.01527556  0.41165807     0.16600
C1192       C  0.65383586  0.02625463  0.41287695     0.26000
C1193       C  0.66488622  0.04905506  0.41096470    -0.40300
C1194       C  0.68755021  0.06048424  0.40698933     0.33100
C1195       C  0.70001260  0.01527860  0.40961717     0.01700
F1196       F  0.65419448  0.99340014  0.41478070    -0.12600
F1197       F  0.69887232  0.08236939  0.40406072    -0.13100
C1198       C  0.71584498  0.02064948  0.43234533     0.16600
C1199       C  0.72667314  0.00920345  0.43496203     0.26000
C1200       C  0.72178693  0.99188209  0.41496623    -0.40200
C1201       C  0.70617217  0.98685111  0.39172477     0.33000
C1202       C  0.69543159  0.99846369  0.38911234     0.14700
F1203       F  0.72037450  0.03662620  0.45274788    -0.12600
F1204       F  0.70093237  0.97045672  0.37179650    -0.13100
F1205       F  0.74183040  0.01510744  0.45740918    -0.15400
F1206       F  0.68052008  0.99327942  0.36649247    -0.14000
F1207       F  0.72060726  0.06088844  0.40142074    -0.14000
F1208       F  0.63202692  0.01447082  0.41661746    -0.15400
C1209       C  0.51534944  0.86516832  0.94664731     0.14700
C1210       C  0.52997489  0.85827598  0.93993272     0.01600
C1211       C  0.54156431  0.85573647  0.96399321     0.16600
C1212       C  0.53979861  0.86157465  0.99386336     0.26000
C1213       C  0.52661024  0.87038602  0.00020633    -0.40300
C1214       C  0.51367929  0.87119908  0.97641278     0.33100
C1215       C  0.53490660  0.85624423  0.90761250     0.01700
F1216       F  0.55570168  0.84895318  0.95831447    -0.12600
F1217       F  0.50026956  0.87896203  0.98140209    -0.13100
C1218       C  0.54214998  0.87409961  0.88789100     0.16600
C1219       C  0.54751207  0.87294204  0.85763499     0.26000
C1220       C  0.54606707  0.85389381  0.84629461    -0.40200
C1221       C  0.53887753  0.83598280  0.86618589     0.33000
C1222       C  0.53330719  0.83715574  0.89652687     0.14700
F1223       F  0.54487126  0.89310514  0.89832330    -0.12600
F1224       F  0.53729627  0.81733192  0.85642063    -0.13100
F1225       F  0.55495957  0.89092643  0.83990734    -0.15400
F1226       F  0.52631600  0.81962517  0.91506061    -0.14000
F1227       F  0.50331971  0.86695521  0.92398008    -0.14000
F1228       F  0.55167403  0.85931676  0.01631587    -0.15400
C1229       C  0.43025066  0.86773071  0.17322326     0.14700
C1230       C  0.41489466  0.86640657  0.15192459     0.01600
C1231       C  0.42001104  0.86888777  0.12063468     0.16600
C1232       C  0.44058864  0.87388667  0.11093628     0.26000
C1233       C  0.45650881  0.87647896  0.13244007    -0.40300
C1234       C  0.45074923  0.87254449  0.16363793     0.33100
C1235       C  0.39432786  0.86418558  0.16271191     0.01700
F1236       F  0.40520829  0.86699399  0.09946804    -0.12600
F1237       F  0.46515315  0.87407706  0.18523329    -0.13100
C1238       C  0.38936624  0.88023896  0.15553566     0.16600
C1239       C  0.37100185  0.87934609  0.16772936     0.26000
C1240       C  0.35716079  0.86237163  0.18764273    -0.40200
C1241       C  0.36203086  0.84607190  0.19434393     0.33000
C1242       C  0.38036209  0.84696256  0.18189727     0.14700
F1243       F  0.40284276  0.89736532  0.13765236    -0.12600
F1244       F  0.34916872  0.82924196  0.21306522    -0.13100
F1245       F  0.36725768  0.89556830  0.16065338    -0.15400
F1246       F  0.38453800  0.83098968  0.18868998    -0.14000
F1247       F  0.42584719  0.86557502  0.20363482    -0.14000
F1248       F  0.44508713  0.87704498  0.08058059    -0.15400
C1249       C  0.59576468  0.03428280  0.25814761     0.14700
C1250       C  0.57628812  0.01427720  0.26124998     0.01600
C1251       C  0.56391580  0.01021607  0.28785409     0.16600
C1252       C  0.57151700  0.02519846  0.31171385     0.26000
C1253       C  0.59144102  0.04476944  0.30919190    -0.40300
C1254       C  0.60314322  0.04952248  0.28180588     0.33100
C1255       C  0.56920022  0.99737269  0.23731667     0.01700
F1256       F  0.54452990  0.99158076  0.29088785    -0.12600
F1257       F  0.62241283  0.06827144  0.27872070    -0.13100
C1258       C  0.56441446  0.97630998  0.24497027     0.16600
C1259       C  0.55791932  0.96039968  0.22237973     0.26000
C1260       C  0.55657895  0.96539245  0.19157865    -0.40200
C1261       C  0.56129659  0.98648834  0.18403511     0.33000
C1262       C  0.56734856  0.00220663  0.20668717     0.14700
F1263       F  0.56664655  0.97129404  0.27425397    -0.12600
F1264       F  0.55973190  0.99190871  0.15469632    -0.13100
F1265       F  0.55368513  0.94035729  0.23055188    -0.15400
F1266       F  0.57111064  0.02212262  0.19869561    -0.14000
F1267       F  0.60824194  0.03862411  0.23290253    -0.14000
F1268       F  0.55947941  0.02045114  0.33752281    -0.15400
C1269       C  0.65602081  0.98235218  0.09252883     0.14700
C1270       C  0.66596380  0.96992249  0.09093666     0.01600
C1271       C  0.65298552  0.94728515  0.08932355     0.16600
C1272       C  0.63040013  0.93722306  0.08900748     0.26000
C1273       C  0.62026183  0.94962580  0.09030422    -0.40300
C1274       C  0.63345662  0.97239024  0.09224940     0.33100
C1275       C  0.68987311  0.98065954  0.08995039     0.01700
F1276       F  0.66222791  0.93488801  0.08845705    -0.12600
F1277       F  0.62464707  0.98514038  0.09398046    -0.13100
C1278       C  0.70267789  0.99439024  0.11375429     0.16600
C1279       C  0.72528571  0.00561391  0.11183802     0.26000
C1280       C  0.73560737  0.00335442  0.08594946    -0.40200
C1281       C  0.72258290  0.98898436  0.06253649     0.33000
C1282       C  0.70000360  0.97783608  0.06456963     0.14700
F1283       F  0.69324284  0.99698173  0.13888658    -0.12600
F1284       F  0.73155110  0.98601211  0.03718668    -0.13100
F1285       F  0.73695833  0.01893284  0.13525134    -0.15400
F1286       F  0.68797090  0.96483375  0.04109000    -0.14000
F1287       F  0.66821834  0.00429349  0.09376255    -0.14000
F1288       F  0.61856520  0.91526872  0.08759725    -0.15400
C1289       C  0.52789926  0.00185857  0.03800507     0.14700
C1290       C  0.51325886  0.99519900  0.01334453     0.01600
C1291       C  0.50434660  0.97408868  0.00195503     0.16600
C1292       C  0.50977694  0.95971240  0.01523367     0.26000
C1293       C  0.52431604  0.96623399  0.04016397    -0.40300
C1294       C  0.53339697  0.98754132  0.05132087     0.33100
C1295       C  0.50739376  0.01031516  0.99929350     0.01700
F1296       F  0.49053674  0.96748824  0.97768286    -0.12600
F1297       F  0.54692953  0.99430403  0.07592690    -0.13100
C1298       C  0.52307744  0.02882928  0.98375511     0.16600
C1299       C  0.51753477  0.04295922  0.96997119     0.26000
C1300       C  0.49614278  0.03877555  0.97139716    -0.40200
C1301       C  0.48044056  0.02020704  0.98697723     0.33000
C1302       C  0.48606460  0.00614810  0.00095489     0.14700
F1303       F  0.54366606  0.03291845  0.98129928    -0.12600
F1304       F  0.45979915  0.01596057  0.98930046    -0.13100
F1305       F  0.53294006  0.06034589  0.95426348    -0.15400
F1306       F  0.47078460  0.98861733  0.01654012    -0.14000
F1307       F  0.53641324  0.02207973  0.04973452    -0.14000
F1308       F  0.50094589  0.93947085  0.00347283    -0.15400
C1309       C  0.47091229  0.18496773  0.85634728     0.14700
C1310       C  0.47186224  0.18672454  0.82432461     0.01600
C1311       C  0.47500768  0.17204776  0.80729994     0.16600
C1312       C  0.47709412  0.15579296  0.82207998     0.26000
C1313       C  0.47567892  0.15365905  0.85425367    -0.40300
C1314       C  0.47267238  0.16859178  0.87116966     0.33100
C1315       C  0.46757686  0.20265429  0.80891116     0.01700
F1316       F  0.47575135  0.17329036  0.77628108    -0.12600
F1317       F  0.47138332  0.16739606  0.90217111    -0.13100
C1318       C  0.48256816  0.22504549  0.81058019     0.16600
C1319       C  0.47713215  0.24004567  0.79931493     0.26000
C1320       C  0.45645006  0.23282571  0.78682310    -0.40200
C1321       C  0.44185807  0.21036426  0.78407907     0.33000
C1322       C  0.44742661  0.19547119  0.79482719     0.14700
F1323       F  0.50219467  0.23235042  0.82399117    -0.12600
F1324       F  0.42187497  0.20279202  0.77164253    -0.13100
F1325       F  0.49149750  0.26155072  0.80246498    -0.15400
F1326       F  0.43265593  0.17396657  0.79296676    -0.14000
F1327       F  0.46751332  0.19873216  0.87326296    -0.14000
F1328       F  0.47969799  0.14168003  0.80475854    -0.15400
C1329       C  0.34693847  0.19520824  0.66455671     0.14700
C1330       C  0.33986345  0.17530253  0.67929108     0.01600
C1331       C  0.34530709  0.17496152  0.71005395     0.16600
C1332       C  0.35759642  0.19418872  0.72603130     0.26000
C1333       C  0.36520675  0.21431466  0.71130485    -0.40300
C1334       C  0.35955414  0.21460636  0.68038819     0.33100
C1335       C  0.32611586  0.15472258  0.66319555     0.01700
F1336       F  0.33900888  0.15589171  0.72455341    -0.12600
F1337       F  0.36653876  0.23356485  0.66520719    -0.13100
C1338       C  0.33340114  0.14960469  0.63659998     0.16600
C1339       C  0.32022890  0.12986498  0.62181772     0.26000
C1340       C  0.29959016  0.11501680  0.63353034    -0.40200
C1341       C  0.29261942  0.12010474  0.66054024     0.33000
C1342       C  0.30570136  0.13981907  0.67507533     0.14700
F1343       F  0.35328668  0.16366881  0.62507590    -0.12600
F1344       F  0.27309377  0.10597689  0.67299919    -0.13100
F1345       F  0.32738399  0.12564923  0.59557011    -0.15400
F1346       F  0.29826017  0.14455002  0.70059188    -0.14000
F1347       F  0.34149932  0.19584971  0.63490260    -0.14000
F1348       F  0.36221007  0.19293267  0.75590641    -0.15400
C1349       C  0.22712080  0.08204307  0.04409062     0.14700
C1350       C  0.20568189  0.06779444  0.03495776     0.01600
C1351       C  0.19048430  0.07452953  0.03653864     0.16600
C1352       C  0.19682654  0.09552332  0.04643568     0.26000
C1353       C  0.21859260  0.11020892  0.05431151    -0.40300
C1354       C  0.23355648  0.10301410  0.05358480     0.33100
C1355       C  0.20011585  0.04691193  0.02080412     0.01700
F1356       F  0.16965846  0.06094208  0.02772207    -0.12600
F1357       F  0.25461094  0.11639248  0.06162702    -0.13100
C1358       C  0.19984215  0.03031640  0.03831866     0.16600
C1359       C  0.19811448  0.01209052  0.02397100     0.26000
C1360       C  0.19712378  0.01046797  0.99180753    -0.40200
C1361       C  0.19631389  0.02666582  0.97453098     0.33000
C1362       C  0.19776863  0.04466898  0.98892921     0.14700
F1363       F  0.20201505  0.03216537  0.06921659    -0.12600
F1364       F  0.19448158  0.02528284  0.94356295    -0.13100
F1365       F  0.19863339  0.99668200  0.04145594    -0.15400
F1366       F  0.19810533  0.06056039  0.97155514    -0.14000
F1367       F  0.24212662  0.07594970  0.04236865    -0.14000
F1368       F  0.18193721  0.10179105  0.04677551    -0.15400
C1369       C  0.36715230  0.26457937  0.91331410     0.14700
C1370       C  0.35087086  0.24264222  0.91518869     0.01600
C1371       C  0.34963536  0.22824087  0.89266534     0.16600
C1372       C  0.36413561  0.23560745  0.86832646     0.26000
C1373       C  0.38022363  0.25771307  0.86577108    -0.40300
C1374       C  0.38170945  0.27209006  0.88881630     0.33100
C1375       C  0.33467072  0.23463185  0.94000909     0.01700
F1376       F  0.33380094  0.20704173  0.89364104    -0.12600
F1377       F  0.39720249  0.29339950  0.88774833    -0.13100
C1378       C  0.32083712  0.24288581  0.94343024     0.16600
C1379       C  0.30453772  0.23429061  0.96553646     0.26000
C1380       C  0.30170345  0.21715275  0.98469823    -0.40200
C1381       C  0.31581272  0.20905721  0.98121644     0.33000
C1382       C  0.33210618  0.21776265  0.95918013     0.14700
F1383       F  0.32276759  0.25895556  0.92479404    -0.12600
F1384       F  0.31408339  0.19279333  0.99922909    -0.13100
F1385       F  0.29157178  0.24282135  0.96801675    -0.15400
F1386       F  0.34554858  0.20977665  0.95666921    -0.14000
F1387       F  0.36898944  0.27870433  0.93529880    -0.14000
F1388       F  0.36180090  0.22105431  0.84671840    -0.15400
C1389       C  0.33519785  0.17523546  0.13759928     0.14700
C1390       C  0.33779581  0.17812494  0.16933239     0.01600
C1391       C  0.32657974  0.18634743  0.18508933     0.16600
C1392       C  0.31228757  0.19088191  0.16938200     0.26000
C1393       C  0.30897612  0.18716430  0.13763341    -0.40300
C1394       C  0.32102999  0.17975100  0.12186248     0.33100
C1395       C  0.35191379  0.17208123  0.18586389     0.01700
F1396       F  0.32889639  0.18924107  0.21586358    -0.12600
F1397       F  0.31918589  0.17681890  0.09106984    -0.13100
C1398       C  0.37009239  0.18772122  0.20209695     0.16600
C1399       C  0.38360691  0.18200017  0.21729775     0.26000
C1400       C  0.37918240  0.16051031  0.21634391    -0.40200
C1401       C  0.36103470  0.14491178  0.19985250     0.33000
C1402       C  0.34748104  0.15065204  0.18482406     0.32700
F1403       F  0.37501033  0.20864211  0.20264335    -0.12600
F1404       F  0.35601546  0.12396277  0.19902552    -0.13100
F1405       F  0.40128852  0.19761236  0.23237314    -0.15400
F1406       F  0.32977050  0.13518801  0.16964355    -0.14000
F1407       F  0.34644269  0.16799114  0.12178657    -0.14000
F1408       F  0.30120298  0.19817185  0.18545506    -0.15400
C1409       C  0.38766747  0.36155964  0.75522923     0.14700
C1410       C  0.36641161  0.35163754  0.74384681     0.01600
C1411       C  0.35583508  0.32987580  0.73477356     0.16600
C1412       C  0.36632161  0.31805307  0.73739567     0.26000
C1413       C  0.38743488  0.32777115  0.74961483    -0.40300
C1414       C  0.39803987  0.34966543  0.75842409     0.33100
C1415       C  0.35503837  0.36383817  0.74246585     0.01700
F1416       F  0.33531446  0.32009425  0.72349531    -0.12600
F1417       F  0.41853720  0.35962071  0.76979523    -0.13100
C1418       C  0.36103006  0.38040169  0.72088513     0.16600
C1419       C  0.35043075  0.39214597  0.71988136     0.26000
C1420       C  0.33357175  0.38752206  0.74063121    -0.40200
C1421       C  0.32778250  0.37091318  0.76241549     0.33000
C1422       C  0.33839541  0.35916438  0.76319425     0.14700
F1423       F  0.37696242  0.38497266  0.70043942    -0.12600
F1424       F  0.31159372  0.36568674  0.78267041    -0.13100
F1425       F  0.35673293  0.40799213  0.69846188    -0.15400
F1426       F  0.33251749  0.34324043  0.78435942    -0.14000
F1427       F  0.39817869  0.38267037  0.76381289    -0.14000
F1428       F  0.35553240  0.29688732  0.72907625    -0.15400
C1429       C  0.20546189  0.20354780  0.21928442     0.14700
C1430       C  0.19177919  0.18411812  0.23467514     0.01600
C1431       C  0.18517415  0.16429420  0.22009470     0.16600
C1432       C  0.19291339  0.16398586  0.19077778     0.26000
C1433       C  0.20771925  0.18352856  0.17620288    -0.40300
C1434       C  0.21337793  0.20328163  0.19039678     0.33100
C1435       C  0.18649721  0.18516658  0.26697095     0.01700
F1436       F  0.17178821  0.14534411  0.23461501    -0.12600
F1437       F  0.22700318  0.22245323  0.17649690    -0.13100
C1438       C  0.17302699  0.19326709  0.27446318     0.16600
C1439       C  0.17222453  0.19938431  0.30455068     0.26000
C1440       C  0.18517372  0.19775406  0.32761258    -0.40200
C1441       C  0.19753229  0.18821428  0.32028191     0.33000
C1442       C  0.19815100  0.18198365  0.29022363     0.14700
F1443       F  0.16169930  0.19651464  0.25220213    -0.12600
F1444       F  0.20983431  0.18579908  0.34187144    -0.13100
F1445       F  0.16005291  0.20843573  0.31046349    -0.15400
F1446       F  0.21147141  0.17439983  0.28334615    -0.14000
F1447       F  0.21208583  0.22287273  0.23301394    -0.14000
F1448       F  0.18696222  0.14469309  0.17749459    -0.15400
C1449       C  0.18343176  0.14652954  0.51721835     0.14700
C1450       C  0.20038096  0.14265583  0.51218848     0.01600
C1451       C  0.21768315  0.15662412  0.49329755     0.16600
C1452       C  0.21816905  0.17444324  0.47962320     0.26000
C1453       C  0.20135880  0.17866007  0.48484736    -0.40300
C1454       C  0.18393083  0.16449005  0.50373130     0.33100
C1455       C  0.20067965  0.12441904  0.52702191     0.01700
F1456       F  0.23419415  0.15299915  0.48826780    -0.12600
F1457       F  0.16713043  0.16769297  0.50849009    -0.13100
C1458       C  0.19163876  0.10441292  0.51208176     0.16600
C1459       C  0.19602610  0.08867313  0.52270856     0.26000
C1460       C  0.20947324  0.09281223  0.54842429    -0.40200
C1461       C  0.21703857  0.11221718  0.56476783     0.33000
C1462       C  0.21277265  0.12798700  0.55394348     0.14700
F1463       F  0.17969045  0.10067833  0.48618507    -0.12600
F1464       F  0.23014382  0.11674715  0.58959334    -0.13100
F1465       F  0.18786043  0.06973038  0.50721911    -0.15400
F1466       F  0.22165578  0.14734003  0.56851527    -0.14000
F1467       F  0.16646596  0.13292348  0.53514818    -0.14000
F1468       F  0.23534119  0.18782167  0.46182041    -0.15400
C1469       C  0.22362446  0.30567195  0.57014711     0.14700
C1470       C  0.24334759  0.32525388  0.56599833     0.01600
C1471       C  0.25536457  0.32817237  0.53934252     0.16600
C1472       C  0.24741562  0.31223743  0.51671864     0.26000
C1473       C  0.22718048  0.29306761  0.52014621    -0.40300
C1474       C  0.21560580  0.28969613  0.54742918     0.33100
C1475       C  0.25104997  0.34292589  0.58886928     0.01700
F1476       F  0.27449019  0.34682237  0.53465676    -0.12600
F1477       F  0.19612724  0.27136456  0.55160086    -0.13100
C1478       C  0.27175054  0.35186179  0.60212363     0.16600
C1479       C  0.27907183  0.36871239  0.62333974     0.26000
C1480       C  0.26572065  0.37684714  0.63206905    -0.40200
C1481       C  0.24501787  0.36792121  0.61863473     0.33000
C1482       C  0.23784987  0.35126357  0.59708908     0.14700
F1483       F  0.28469235  0.34384430  0.59517695    -0.12600
F1484       F  0.23172989  0.37541964  0.62611780    -0.13100
F1485       F  0.29891607  0.37640049  0.63628706    -0.15400
F1486       F  0.21807412  0.34346181  0.58386870    -0.14000
F1487       F  0.21203760  0.30209643  0.59615381    -0.14000
F1488       F  0.25955835  0.31561743  0.49133523    -0.15400
C1489       C  0.34071931  0.48593798  0.95013885     0.14700
C1490       C  0.34272361  0.47356447  0.92704396     0.01600
C1491       C  0.35392326  0.46276737  0.93346890     0.16600
C1492       C  0.36278026  0.46399710  0.96252022     0.26000
C1493       C  0.36067075  0.47615412  0.98616410    -0.40300
C1494       C  0.34970774  0.48734955  0.97939680     0.33100
C1495       C  0.33248500  0.47081898  0.89644245     0.01700
F1496       F  0.35595758  0.45061518  0.91154946    -0.12600
F1497       F  0.34726868  0.49931471  0.00116626    -0.13100
C1498       C  0.34501024  0.48245400  0.87101037     0.16600
C1499       C  0.33633794  0.47700765  0.84125902     0.26000
C1500       C  0.31516275  0.45952907  0.83651143    -0.40200
C1501       C  0.30236960  0.44856275  0.86208886     0.33000
C1502       C  0.31089787  0.45427974  0.89179621     0.14700
F1503       F  0.36599546  0.49831765  0.87492785    -0.12600
F1504       F  0.28179068  0.43179907  0.85818435    -0.13100
F1505       F  0.34916322  0.48768009  0.81700709    -0.15400
F1506       F  0.29848763  0.44281723  0.91597572    -0.14000
F1507       F  0.32991092  0.49650623  0.94440669    -0.14000
F1508       F  0.37347509  0.45319217  0.96728226    -0.15400
C1509       C  0.32399616  0.35718783  0.12169533     0.14700
C1510       C  0.32181621  0.34516137  0.09529428     0.01600
C1511       C  0.33198044  0.35624371  0.06818043     0.16600
C1512       C  0.34372162  0.37886831  0.06724251     0.26000
C1513       C  0.34590598  0.39103781  0.09361203    -0.40300
C1514       C  0.33596688  0.37984514  0.12095451     0.33100
C1515       C  0.30870515  0.32110815  0.09560178     0.01700
F1516       F  0.33078028  0.34510330  0.04252857    -0.12600
F1517       F  0.33793724  0.39072735  0.14722131    -0.13100
C1518       C  0.29211714  0.31014834  0.07388562     0.16600
C1519       C  0.28079247  0.28756589  0.07226351     0.26000
C1520       C  0.28556712  0.27527155  0.09267842    -0.40200
C1521       C  0.30150918  0.28627747  0.11546171     0.33000
C1522       C  0.31303999  0.30895400  0.11674807     0.14700
F1523       F  0.28686794  0.32138461  0.05405476    -0.12600
F1524       F  0.30657713  0.27522316  0.13588533    -0.13100
F1525       F  0.26518574  0.27782089  0.05046850    -0.15400
F1526       F  0.32904867  0.31903575  0.13792888    -0.14000
F1527       F  0.31420603  0.34701391  0.14816614    -0.14000
F1528       F  0.35282096  0.38877221  0.04032770    -0.15400
C1529       C  0.46942881  0.35208653  0.56216245     0.14700
C1530       C  0.47653680  0.33755319  0.56817101     0.01600
C1531       C  0.48735983  0.33324904  0.54517621     0.16600
C1532       C  0.49042552  0.34289988  0.51612374     0.26000
C1533       C  0.48259895  0.35697151  0.50965983    -0.40300
C1534       C  0.47248383  0.36176909  0.53340770     0.33100
C1535       C  0.47084733  0.32578711  0.59774848     0.01700
F1536       F  0.49418977  0.31906629  0.55050996    -0.12600
F1537       F  0.46522396  0.37569396  0.52885153    -0.13100
C1538       C  0.44944325  0.30910377  0.60263793     0.16600
C1539       C  0.44270162  0.30008214  0.63174106     0.26000
C1540       C  0.45725799  0.30762438  0.65676021    -0.40200
C1541       C  0.47904263  0.32358965  0.65147053     0.33000
C1542       C  0.48574977  0.33267561  0.62215126     0.14700
F1543       F  0.43480405  0.30213650  0.57933519    -0.12600
F1544       F  0.49348257  0.33139993  0.67498111    -0.13100
F1545       F  0.42169807  0.28424295  0.63554541    -0.15400
F1546       F  0.50646726  0.34899864  0.61793026    -0.14000
F1547       F  0.45898623  0.35651786  0.58412121    -0.14000
F1548       F  0.50020007  0.33772857  0.49406846    -0.15400
C1549       C  0.50218001  0.30096735  0.34720915     0.14700
C1550       C  0.48785254  0.28888336  0.32349948     0.01600
C1551       C  0.47472006  0.29603375  0.31029344     0.16600
C1552       C  0.47487596  0.31417497  0.32199780     0.26000
C1553       C  0.48801472  0.32538915  0.34745332    -0.40300
C1554       C  0.50227602  0.31899126  0.35915933     0.33100
C1555       C  0.48440984  0.26735448  0.31556873     0.01700
F1556       F  0.46066074  0.28461917  0.28736407    -0.12600
F1557       F  0.51575950  0.32955345  0.38300650    -0.13100
C1558       C  0.47737993  0.25133347  0.33839592     0.16600
C1559       C  0.47133723  0.23015579  0.33086939     0.26000
C1560       C  0.47221436  0.22456870  0.30039648    -0.40200
C1561       C  0.48027823  0.24075239  0.27772683     0.33000
C1562       C  0.48624216  0.26203302  0.28525154     0.14700
F1563       F  0.47499809  0.25587668  0.36773274    -0.12600
F1564       F  0.48080432  0.23562905  0.24801780    -0.13100
F1565       F  0.46377247  0.21484353  0.35322832    -0.15400
F1566       F  0.49305162  0.27724685  0.26282400    -0.14000
F1567       F  0.51549619  0.29472086  0.35970266    -0.14000
F1568       F  0.46144322  0.32011548  0.30905622    -0.15400
C1569       C  0.42005887  0.43144060  0.22796381     0.14700
C1570       C  0.44243564  0.43939721  0.22890494     0.01600
C1571       C  0.45609546  0.45643634  0.20921419     0.16600
C1572       C  0.44753555  0.46522226  0.18874804     0.26000
C1573       C  0.42498038  0.45693685  0.18719284    -0.40300
C1574       C  0.41140578  0.44004900  0.20739225     0.33100
C1575       C  0.45152024  0.43060350  0.25151848     0.01700
F1576       F  0.47777033  0.46431251  0.20933879    -0.12600
F1577       F  0.38963334  0.43153444  0.20711816    -0.13100
C1578       C  0.44390325  0.40828163  0.25305933     0.16600
C1579       C  0.45096296  0.39986692  0.27644972     0.26000
C1580       C  0.46599867  0.41369412  0.29864419    -0.40200
C1581       C  0.47438444  0.43620399  0.29593479     0.33000
C1582       C  0.46710627  0.44447504  0.27282815     0.14700
F1583       F  0.42942407  0.39457472  0.23203806    -0.12600
F1584       F  0.48895494  0.45034334  0.31648653    -0.13100
F1585       F  0.44277451  0.37816121  0.27755156    -0.15400
F1586       F  0.47453657  0.46605143  0.27226938    -0.14000
F1587       F  0.40651455  0.41543506  0.24734305    -0.14000
F1588       F  0.46143357  0.48163922  0.17017565    -0.15400
C1589       C  0.31744447  0.31434594  0.41084214     0.14700
C1590       C  0.32793483  0.30242814  0.40908600     0.01600
C1591       C  0.31549987  0.27983015  0.40660364     0.16600
C1592       C  0.29287839  0.26916949  0.40641608     0.26000
C1593       C  0.28214169  0.28097363  0.40878208    -0.40300
C1594       C  0.29480566  0.30377921  0.41060556     0.33100
C1595       C  0.35187929  0.31365276  0.40929893     0.01700
F1596       F  0.32531320  0.26797859  0.40506094    -0.12600
F1597       F  0.28541518  0.31601172  0.41259183    -0.13100
C1598       C  0.36379397  0.32578000  0.43481837     0.16600
C1599       C  0.38646142  0.33733090  0.43432434     0.26000
C1600       C  0.39768871  0.33712250  0.40805533    -0.40200
C1601       C  0.38554678  0.32400915  0.38308439     0.33000
C1602       C  0.36291245  0.31250909  0.38371703     0.14700
F1603       F  0.35342719  0.32639045  0.46030669    -0.12600
F1604       F  0.39544435  0.32261273  0.35759419    -0.13100
F1605       F  0.39732171  0.34872614  0.45960064    -0.15400
F1606       F  0.35170897  0.30077817  0.35884086    -0.14000
F1607       F  0.32918526  0.33628724  0.41254849    -0.14000
F1608       F  0.28158577  0.24725521  0.40431213    -0.15400
C1609       C  0.56006044  0.41918550  0.83081860     0.14700
C1610       C  0.54595097  0.40408413  0.85230174     0.01600
C1611       C  0.54869812  0.40949735  0.88345050     0.16600
C1612       C  0.56497961  0.43004843  0.89295373     0.26000
C1613       C  0.57873188  0.44564857  0.87130028    -0.40300
C1614       C  0.57628931  0.43975815  0.84014207     0.33100
C1615       C  0.52716911  0.38356669  0.84166527     0.01700
F1616       F  0.53518676  0.39504241  0.90457486    -0.12600
F1617       F  0.58914835  0.45406690  0.81841305    -0.13100
C1618       C  0.53009816  0.36834555  0.82581181     0.16600
C1619       C  0.51232248  0.35001802  0.81297067     0.26000
C1620       C  0.49128136  0.34668717  0.81571495    -0.40200
C1621       C  0.48847962  0.36187044  0.83234227     0.33000
C1622       C  0.50624714  0.38005503  0.84518469     0.14700
F1623       F  0.55024250  0.37138019  0.82256916    -0.12600
F1624       F  0.46865672  0.35968346  0.83530530    -0.13100
F1625       F  0.51579814  0.33566051  0.79777533    -0.15400
F1626       F  0.50311904  0.39480905  0.85993332    -0.14000
F1627       F  0.55735276  0.41437862  0.80050931    -0.14000
F1628       F  0.56650670  0.43489272  0.92319905    -0.15400
C1629       C  0.52454824  0.51258265  0.96374347     0.14700
C1630       C  0.51449677  0.49478523  0.98377214     0.01600
C1631       C  0.52449056  0.48269931  0.98968506     0.16600
C1632       C  0.54453666  0.48873439  0.97662421     0.26000
C1633       C  0.55517808  0.50720282  0.95755312    -0.40300
C1634       C  0.54468738  0.51882859  0.95092710     0.33100
C1635       C  0.49459956  0.49009179  0.00035786     0.01700
F1636       F  0.51523823  0.46548802  0.00905401    -0.12600
F1637       F  0.55375586  0.53620598  0.93185413    -0.13100
C1638       C  0.47559563  0.46957882  0.99912470     0.16600
C1639       C  0.45707445  0.46556594  0.01526200     0.26000
C1640       C  0.45728150  0.48202960  0.03288812    -0.40200
C1641       C  0.47640483  0.50252285  0.03396153     0.33000
C1642       C  0.49480710  0.50641475  0.01807589     0.14700
F1643       F  0.47490211  0.45349819  0.98209595    -0.12600
F1644       F  0.47734892  0.51905337  0.05016128    -0.13100
F1645       F  0.43915892  0.44547570  0.01416113    -0.15400
F1646       F  0.51309174  0.52617128  0.02048154    -0.14000
F1647       F  0.51482917  0.52404103  0.95666843    -0.14000
F1648       F  0.55361745  0.47661496  0.98322339    -0.15400
C1649       C  0.43416992  0.55794706  0.67269516     0.14700
C1650       C  0.41763889  0.54646798  0.65122566     0.01600
C1651       C  0.42166703  0.55135143  0.62006045     0.16600
C1652       C  0.44233303  0.56691054  0.61018204     0.26000
C1653       C  0.45948482  0.57766772  0.63146171    -0.40300
C1654       C  0.45493388  0.57345658  0.66298002     0.33100
C1655       C  0.39676350  0.52804756  0.66107126     0.01700
F1656       F  0.40567473  0.54048653  0.59909298    -0.12600
F1657       F  0.47068767  0.58362826  0.68448109    -0.13100
C1658       C  0.38163305  0.53139561  0.67624557     0.16600
C1659       C  0.36208235  0.51371881  0.68623333     0.26000
C1660       C  0.35750646  0.49238450  0.68137387    -0.40200
C1661       C  0.37280044  0.48922937  0.66576574     0.33000
C1662       C  0.39221294  0.50692725  0.65572632     0.14700
F1663       F  0.38583557  0.55180400  0.68134807    -0.12600
F1664       F  0.36941384  0.46906526  0.66104685    -0.13100
F1665       F  0.34768018  0.51754132  0.70057718    -0.15400
F1666       F  0.40692365  0.50348555  0.64149403    -0.14000
F1667       F  0.43045730  0.55329592  0.70298715    -0.14000
F1668       F  0.44560161  0.57073254  0.57966721    -0.15400
C1669       C  0.55874110  0.72509126  0.65521134     0.14700
C1670       C  0.54357041  0.72170212  0.67787926     0.01600
C1671       C  0.52938616  0.70056493  0.68832861     0.16600
C1672       C  0.52999028  0.68298353  0.67570921     0.26000
C1673       C  0.54487639  0.68626751  0.65237874    -0.40300
C1674       C  0.55942716  0.70762512  0.64260019     0.33100
C1675       C  0.54291783  0.74045729  0.69050212     0.01700
F1676       F  0.51453589  0.69690026  0.71015734    -0.12600
F1677       F  0.57451774  0.71172912  0.62094400    -0.13100
C1678       C  0.53836567  0.75333177  0.67119421     0.16600
C1679       C  0.54104096  0.77291674  0.68165362     0.26000
C1680       C  0.54846923  0.78009095  0.71169469    -0.40200
C1681       C  0.55140087  0.76628020  0.73168476     0.33000
C1682       C  0.54868829  0.74667796  0.72111241     0.14700
F1683       F  0.53196292  0.74721529  0.64181389    -0.12600
F1684       F  0.55832899  0.77232939  0.76091223    -0.13100
F1685       F  0.53697370  0.78513932  0.66201437    -0.15400
F1686       F  0.55308999  0.73445552  0.74025007    -0.14000
F1687       F  0.57310660  0.74546766  0.64546933    -0.14000
F1688       F  0.51548602  0.66271771  0.68563651    -0.15400
C1689       C  0.50236995  0.49282658  0.44912116     0.14700
C1690       C  0.49846038  0.49285752  0.48051353     0.01600
C1691       C  0.48852585  0.47320999  0.49674394     0.16600
C1692       C  0.48306900  0.45382154  0.48200892     0.26000
C1693       C  0.48745321  0.45375986  0.45064856    -0.40300
C1694       C  0.49686944  0.47348115  0.43427249     0.33100
C1695       C  0.50513020  0.51342485  0.49655282     0.01700
F1696       F  0.48486495  0.47293879  0.52722202    -0.12600
F1697       F  0.50087914  0.47413493  0.40383337    -0.13100
C1698       C  0.48949140  0.51719555  0.50922452     0.16600
C1699       C  0.49576417  0.53629365  0.52533774     0.26000
C1700       C  0.51789274  0.55191292  0.52942145    -0.40200
C1701       C  0.53352544  0.54814369  0.51634067     0.33000
C1702       C  0.52716836  0.52911940  0.49990601     0.14700
F1703       F  0.46809667  0.50232872  0.50591712    -0.12600
F1704       F  0.55496048  0.56297880  0.51909655    -0.13100
F1705       F  0.48012328  0.53916394  0.53766097    -0.15400
F1706       F  0.54255952  0.52578952  0.48776124    -0.14000
F1707       F  0.51155608  0.51158128  0.43285917    -0.14000
F1708       F  0.47445289  0.43532644  0.49880074    -0.15400
C1709       C  0.57030900  0.55263438  0.78376230     0.14700
C1710       C  0.58431133  0.56521632  0.75999368     0.01600
C1711       C  0.60573928  0.56932430  0.76030630     0.16600
C1712       C  0.61283126  0.56076564  0.78353275     0.26000
C1713       C  0.59887266  0.54849700  0.80742216    -0.40300
C1714       C  0.57761266  0.54465708  0.80740259     0.33100
C1715       C  0.57645647  0.57361324  0.73465510     0.01700
F1716       F  0.62004478  0.58221051  0.73861605    -0.12600
F1717       F  0.56375485  0.53285145  0.83018871    -0.13100
C1718       C  0.56594535  0.58520216  0.74082816     0.16600
C1719       C  0.55830845  0.59270317  0.71689434     0.26000
C1720       C  0.56131304  0.58914545  0.68605230    -0.40200
C1721       C  0.57188370  0.57752142  0.68003612     0.33000
C1722       C  0.57916538  0.56977044  0.70396635     0.14700
F1723       F  0.56343046  0.58970056  0.77011413    -0.12600
F1724       F  0.57521789  0.57346658  0.65090525    -0.13100
F1725       F  0.54812574  0.60361131  0.72410439    -0.15400
F1726       F  0.58854359  0.55805089  0.69701570    -0.14000
F1727       F  0.54937962  0.54771390  0.78387652    -0.14000
F1728       F  0.63364149  0.56532130  0.78345321    -0.15400
C1729       C  0.52108295  0.67402343  0.37928646     0.14700
C1730       C  0.53506445  0.67242154  0.40032750     0.01600
C1731       C  0.55563488  0.67734011  0.39088734     0.16600
C1732       C  0.56238163  0.68391074  0.36095122     0.26000
C1733       C  0.54869250  0.68599576  0.33947393    -0.40300
C1734       C  0.52784358  0.68083295  0.34905259     0.33100
C1735       C  0.52846626  0.66468496  0.43199456     0.01700
F1736       F  0.56923000  0.67552177  0.41081581    -0.12600
F1737       F  0.51400323  0.68236539  0.32933162    -0.13100
C1738       C  0.51829279  0.64245595  0.43824888     0.16600
C1739       C  0.51698353  0.63512146  0.46832009     0.26000
C1740       C  0.52612628  0.64998961  0.49263241    -0.40200
C1741       C  0.53509261  0.67220918  0.48647300     0.33000
C1742       C  0.53623660  0.67948416  0.45634422     0.14700
F1743       F  0.51123743  0.62797277  0.41493355    -0.12600
F1744       F  0.54342583  0.68693065  0.50947445    -0.13100
F1745       F  0.50849720  0.61360308  0.47323762    -0.15400
F1746       F  0.54612381  0.70106736  0.45068938    -0.14000
F1747       F  0.50097676  0.66906051  0.38806504    -0.14000
F1748       F  0.58246407  0.68816237  0.35325182    -0.15400
C1749       C  0.47775425  0.62703332  0.17174365     0.14700
C1750       C  0.48063526  0.62255215  0.14150056     0.01600
C1751       C  0.49987475  0.63688673  0.12621316     0.16600
C1752       C  0.51674985  0.65443373  0.14169219     0.26000
C1753       C  0.51463804  0.65804809  0.17281758    -0.40300
C1754       C  0.49460102  0.64468308  0.18731651     0.33100
C1755       C  0.46628634  0.60072124  0.12874080     0.01700
F1756       F  0.50286756  0.63292282  0.09685528    -0.12600
F1757       F  0.49188023  0.64754063  0.21727918    -0.13100
C1758       C  0.44471642  0.59327516  0.12012081     0.16600
C1759       C  0.43121777  0.57172949  0.11054795     0.26000
C1760       C  0.43914119  0.55736900  0.10994643    -0.40200
C1761       C  0.46108994  0.56539451  0.11750440     0.33000
C1762       C  0.47435691  0.58669525  0.12691706     0.14700
F1763       F  0.43671916  0.60674980  0.12133663    -0.12600
F1764       F  0.46985597  0.55257072  0.11626986    -0.13100
F1765       F  0.41031903  0.56479743  0.10295230    -0.15400
F1766       F  0.49507259  0.59346568  0.13549648    -0.14000
F1767       F  0.45936609  0.61319768  0.18705054    -0.14000
F1768       F  0.53548906  0.66735069  0.12649386    -0.15400
C1769       C  0.53484264  0.82843027  0.20634015     0.14700
C1770       C  0.53770428  0.81392546  0.18848944     0.01600
C1771       C  0.53990418  0.81685390  0.15672867     0.16600
C1772       C  0.53973178  0.83430583  0.14292996     0.26000
C1773       C  0.53729122  0.84927180  0.16069438    -0.40300
C1774       C  0.53448161  0.84590782  0.19257471     0.33100
C1775       C  0.54113163  0.79729491  0.20288068     0.01700
F1776       F  0.54323256  0.80330277  0.13916644    -0.12600
F1777       F  0.53220855  0.85992114  0.21060986    -0.13100
C1778       C  0.52629393  0.77512887  0.19834428     0.16600
C1779       C  0.53159548  0.75965897  0.20746937     0.26000
C1780       C  0.55201154  0.76633270  0.22051476    -0.40200
C1781       C  0.56626144  0.78843887  0.22650603     0.33000
C1782       C  0.56083642  0.80376978  0.21783237     0.14700
F1783       F  0.50716355  0.76861620  0.18382742    -0.12600
F1784       F  0.58584459  0.79527124  0.23983757    -0.13100
F1785       F  0.51750822  0.73841503  0.20152279    -0.15400
F1786       F  0.57548617  0.82510823  0.22208975    -0.14000
F1787       F  0.53289613  0.82590143  0.23718085    -0.14000
F1788       F  0.54220461  0.83658451  0.11209851    -0.15400
C1789       C  0.68144217  0.85505331  0.33599282     0.14700
C1790       C  0.68277438  0.83695777  0.34505032     0.01600
C1791       C  0.69590598  0.83880034  0.37008484     0.16600
C1792       C  0.70772623  0.85845178  0.38563694     0.26000
C1793       C  0.70666467  0.87681631  0.37649488    -0.40300
C1794       C  0.69330477  0.87480927  0.35144843     0.33100
C1795       C  0.67057563  0.81628633  0.32806258     0.01700
F1796       F  0.69775915  0.82168647  0.37900825    -0.12600
F1797       F  0.69151520  0.89184815  0.34199257    -0.13100
C1798       C  0.67400052  0.81572894  0.29655824     0.16600
C1799       C  0.66083971  0.79700923  0.27961001     0.26000
C1800       C  0.64427730  0.77837856  0.29398969    -0.40200
C1801       C  0.64181305  0.77843422  0.32589369     0.33000
C1802       C  0.65480523  0.79730311  0.34279689     0.14700
F1803       F  0.68993062  0.83348569  0.28213928    -0.12600
F1804       F  0.62583767  0.76072752  0.34036411    -0.13100
F1805       F  0.66407669  0.79715873  0.24901475    -0.15400
F1806       F  0.65119280  0.79736851  0.37324010    -0.14000
F1807       F  0.66837382  0.85347575  0.31230550    -0.14000
F1808       F  0.72067806  0.85952223  0.40919051    -0.15400
C1809       C  0.83212497  0.95959457  0.02536795     0.14700
C1810       C  0.81995753  0.94956524  0.99889027     0.01600
C1811       C  0.80944894  0.95890047  0.98359176     0.16600
C1812       C  0.81036037  0.97744698  0.99516306     0.26000
C1813       C  0.82173933  0.98705411  0.02251457    -0.40300
C1814       C  0.83301808  0.97811626  0.03710851     0.33100
C1815       C  0.81633564  0.92827963  0.98880863     0.01700
F1816       F  0.79734410  0.94941312  0.95815890    -0.12600
F1817       F  0.84430054  0.98673412  0.06342465    -0.13100
C1818       C  0.80638529  0.91041491  0.00867890     0.16600
C1819       C  0.79991001  0.88963947  0.99818084     0.26000
C1820       C  0.80296880  0.88619150  0.96730928    -0.40200
C1821       C  0.81428182  0.90435462  0.94798397     0.33000
C1822       C  0.82088482  0.92518709  0.95866859     0.14700
F1823       F  0.80167158  0.91286185  0.03788252    -0.12600
F1824       F  0.81868942  0.90199414  0.91858462    -0.13100
F1825       F  0.78958080  0.87281658  0.01801526    -0.15400
F1826       F  0.83132751  0.94233092  0.93938222    -0.14000
F1827       F  0.84280469  0.95115622  0.04025141    -0.14000
F1828       F  0.79970427  0.98569308  0.97975743    -0.15400
C1829       C  0.69436463  0.68887942  0.91669816     0.14700
C1830       C  0.70599359  0.67826487  0.91231634     0.01600
C1831       C  0.72839001  0.69081233  0.90682013     0.16600
C1832       C  0.73890037  0.71352648  0.90567181     0.26000
C1833       C  0.72716804  0.72421740  0.90981106    -0.40300
C1834       C  0.70468548  0.71143446  0.91518566     0.33100
C1835       C  0.69434190  0.65413064  0.91264554     0.01700
F1836       F  0.74007049  0.68107614  0.90203210    -0.12600
F1837       F  0.69250705  0.72066130  0.91969396    -0.13100
C1838       C  0.67605949  0.64228627  0.89376434     0.16600
C1839       C  0.66394428  0.61970320  0.89525463     0.26000
C1840       C  0.67012444  0.60829734  0.91506669    -0.40200
C1841       C  0.68878172  0.62000674  0.93336006     0.33000
C1842       C  0.70066701  0.64275366  0.93240993     0.14700
F1843       F  0.67005026  0.65263491  0.87343991    -0.12600
F1844       F  0.69511469  0.60946332  0.95281562    -0.13100
F1845       F  0.64647791  0.60892298  0.87649568    -0.15400
F1846       F  0.71795351  0.65364336  0.95141846    -0.14000
F1847       F  0.67287914  0.67734239  0.92311501    -0.14000
F1848       F  0.76055546  0.72495355  0.90049759    -0.15400
C1849       C  0.67339922  0.76037214  0.03553506     0.14700
C1850       C  0.67977755  0.76796461  0.06545597     0.01600
C1851       C  0.70171522  0.78266500  0.07172762     0.16600
C1852       C  0.71715002  0.78967948  0.04832023     0.26000
C1853       C  0.71086306  0.78213992  0.01804916    -0.40300
C1854       C  0.68866462  0.76739831  0.01204894     0.33100
C1855       C  0.66343892  0.76012030  0.09010527     0.01700
F1856       F  0.70821949  0.78999753  0.10067442    -0.12600
F1857       F  0.68154002  0.75956051  0.98345799    -0.13100
C1858       C  0.65480879  0.73907123  0.10168511     0.16600
C1859       C  0.63897190  0.73130197  0.12444714     0.26000
C1860       C  0.63138210  0.74447813  0.13610663    -0.40200
C1861       C  0.64005443  0.76560677  0.12427166     0.33000
C1862       C  0.65593992  0.77332333  0.10145894     0.14700
F1863       F  0.66203245  0.72614173  0.09125088    -0.12600
F1864       F  0.63299691  0.77872553  0.13446755    -0.13100
F1865       F  0.63164661  0.71110280  0.13578176    -0.15400
F1866       F  0.66384794  0.79361448  0.09014132    -0.14000
F1867       F  0.65223728  0.74615573  0.02903736    -0.14000
F1868       F  0.73818753  0.80392311  0.05538679    -0.15400
C1869       C  0.67263561  0.85465059  0.80813285     0.14700
C1870       C  0.66633871  0.84116153  0.83404080     0.01600
C1871       C  0.64544734  0.83302294  0.84591890     0.16600
C1872       C  0.63082121  0.83767504  0.83144653     0.26000
C1873       C  0.63688597  0.85064629  0.80487139    -0.40300
C1874       C  0.65811478  0.85941628  0.79373987     0.33100
C1875       C  0.68143520  0.83514053  0.84793238     0.01700
F1876       F  0.63924823  0.82061526  0.87161158    -0.12600
F1877       F  0.66456589  0.87179478  0.76802376    -0.13100
C1878       C  0.70171417  0.85120563  0.85910729     0.16600
C1879       C  0.71643492  0.84568582  0.87078672     0.26000
C1880       C  0.71112726  0.82387596  0.87172437    -0.40200
C1881       C  0.69068513  0.80777795  0.86065777     0.33000
C1882       C  0.67601775  0.81338544  0.84885553     0.14700
F1883       F  0.70714596  0.87228889  0.85912451    -0.12600
F1884       F  0.68501925  0.78663328  0.86061031    -0.13100
F1885       F  0.73568696  0.86173143  0.88190093    -0.15400
F1886       F  0.65668724  0.79759604  0.83758151    -0.14000
F1887       F  0.69264337  0.86253621  0.79600792    -0.14000
F1888       F  0.61078069  0.82959991  0.84355947    -0.15400
C1889       C  0.80701022  0.82783542  0.76982864     0.14700
C1890       C  0.82304905  0.82224009  0.76677814     0.01600
C1891       C  0.83260922  0.81960591  0.79340356     0.16600
C1892       C  0.82474072  0.82027047  0.82232249     0.26000
C1893       C  0.80749127  0.82407585  0.82523712    -0.40300
C1894       C  0.79944328  0.82895357  0.79886366     0.33100
C1895       C  0.82742673  0.81603631  0.73636910     0.01700
F1896       F  0.84893950  0.81538793  0.79130915    -0.12600
F1897       F  0.78299422  0.83299276  0.80096162    -0.13100
C1898       C  0.83308055  0.82989957  0.71080280     0.16600
C1899       C  0.83424317  0.82251715  0.68157219     0.26000
C1900       C  0.83023072  0.80137347  0.67766196    -0.40200
C1901       C  0.82565159  0.78795197  0.70331369     0.33000
C1902       C  0.82406976  0.79510387  0.73231643     0.14700
F1903       F  0.83716504  0.85042927  0.71408988    -0.12600
F1904       F  0.82140040  0.76736849  0.69996150    -0.13100
F1905       F  0.83899141  0.83586225  0.65705538    -0.15400
F1906       F  0.81794190  0.78104018  0.75619451    -0.14000
F1907       F  0.79740789  0.83049107  0.74465931    -0.14000
F1908       F  0.83358159  0.81658418  0.84751711    -0.15400
C1909       C  0.81998583  0.89093011  0.46254936     0.14700
C1910       C  0.81039073  0.87805640  0.48865945     0.01600
C1911       C  0.79475550  0.88019868  0.50468297     0.16600
C1912       C  0.78827987  0.89437450  0.49439327     0.26000
C1913       C  0.79703703  0.90660235  0.46742972    -0.40300
C1914       C  0.81339271  0.90517060  0.45200252     0.33100
C1915       C  0.81544116  0.86140209  0.49868468     0.01700
F1916       F  0.78494466  0.86777166  0.52969516    -0.12600
F1917       F  0.82228930  0.91675315  0.42606097    -0.13100
C1918       C  0.82195665  0.86126653  0.52904453     0.16600
C1919       C  0.82281830  0.84352468  0.54037003     0.26000
C1920       C  0.81764710  0.82578158  0.52134824    -0.40200
C1921       C  0.81233696  0.82643198  0.49049143     0.33000
C1922       C  0.81104624  0.84404492  0.47930257     0.14700
F1923       F  0.82678532  0.87805816  0.54803433    -0.12600
F1924       F  0.80696089  0.80938731  0.47176639    -0.13100
F1925       F  0.82848588  0.84357404  0.57010780    -0.15400
F1926       F  0.80411362  0.84348157  0.45014709    -0.14000
F1927       F  0.83548736  0.88946151  0.44707382    -0.14000
F1928       F  0.77301774  0.89576333  0.51070836    -0.15400
C1929       C  0.70253867  0.68787933  0.56911195     0.14700
C1930       C  0.69056321  0.69672957  0.58064084     0.01600
C1931       C  0.70157890  0.71729641  0.59436209     0.16600
C1932       C  0.72421958  0.72881977  0.59653089     0.26000
C1933       C  0.73625660  0.71986916  0.58528016    -0.40300
C1934       C  0.72510020  0.69924339  0.57146834     0.33100
C1935       C  0.66657976  0.68424911  0.57888950     0.01700
F1936       F  0.69036579  0.72605659  0.60620067    -0.12600
F1937       F  0.73601735  0.69029242  0.55918921    -0.13100
C1938       C  0.65493583  0.66351243  0.59202653     0.16600
C1939       C  0.63232514  0.65174894  0.59093346     0.26000
C1940       C  0.62082422  0.66059987  0.57693198    -0.40200
C1941       C  0.63253394  0.68128991  0.56345069     0.33000
C1942       C  0.65520605  0.69294832  0.56429471     0.14700
F1943       F  0.66547467  0.65491252  0.60689225    -0.12600
F1944       F  0.62206618  0.69020614  0.54924800    -0.13100
F1945       F  0.62171938  0.63208060  0.60485555    -0.15400
F1946       F  0.66608135  0.71268145  0.55061497    -0.14000
F1947       F  0.69237238  0.66834919  0.55489129    -0.14000
F1948       F  0.73429847  0.74859826  0.61001778    -0.15400
C1949       C  0.66381991  0.53008980  0.12351857     0.14700
C1950       C  0.67520763  0.52405719  0.10377276     0.01600
C1951       C  0.69364837  0.52416352  0.11521128     0.16600
C1952       C  0.70103559  0.53106212  0.14521222     0.26000
C1953       C  0.68981917  0.53750009  0.16480296    -0.40300
C1954       C  0.67082209  0.53643229  0.15363487     0.33100
C1955       C  0.66855637  0.51927980  0.07089630     0.01700
F1956       F  0.70462241  0.51767060  0.09729431    -0.12600
F1957       F  0.65940552  0.54251904  0.17132668    -0.13100
C1958       C  0.68355295  0.53056481  0.04744601     0.16600
C1959       C  0.67669368  0.52873854  0.01693430     0.26000
C1960       C  0.65456018  0.51597029  0.00910065    -0.40200
C1961       C  0.63977631  0.50355039  0.03232026     0.33000
C1962       C  0.64674933  0.50503649  0.06274931     0.14700
F1963       F  0.70474135  0.54445424  0.05416943    -0.12600
F1964       F  0.61833045  0.49075958  0.02601445    -0.13100
F1965       F  0.69176626  0.54004812  0.99517945    -0.15400
F1966       F  0.63198249  0.49298403  0.08448748    -0.14000
F1967       F  0.64640496  0.53095775  0.11322309    -0.14000
F1968       F  0.71930540  0.53159977  0.15487848    -0.15400
C1969       C  0.59993342  0.44082791  0.37662670     0.14700
C1970       C  0.60795954  0.46322647  0.37721892     0.01600
C1971       C  0.59468808  0.47086469  0.38763042     0.16600
C1972       C  0.57315956  0.45636095  0.39504056     0.26000
C1973       C  0.56457523  0.43390612  0.39256543    -0.40300
C1974       C  0.57835380  0.42618802  0.38460861     0.33100
C1975       C  0.62833632  0.47862696  0.36180211     0.01700
F1976       F  0.60209752  0.49244275  0.38815106    -0.12600
F1977       F  0.57051827  0.40460674  0.38216016    -0.13100
C1978       C  0.62875933  0.47900188  0.32973368     0.16600
C1979       C  0.64553223  0.49647001  0.31419003     0.26000
C1980       C  0.66231231  0.51392369  0.33052387    -0.40200
C1981       C  0.66264680  0.51272896  0.36273778     0.33000
C1982       C  0.64564033  0.49528079  0.37824962     0.14700
F1983       F  0.61206874  0.46311728  0.31343626    -0.12600
F1984       F  0.67875741  0.52896262  0.37935019    -0.13100
F1985       F  0.64503421  0.49646983  0.28312159    -0.15400
F1986       F  0.64551555  0.49510037  0.40931530    -0.14000
F1987       F  0.61264425  0.43320902  0.36671862    -0.14000
F1988       F  0.56039208  0.46431488  0.40335334    -0.15400
C1989       C  0.76053857  0.66713851  0.38095937     0.14700
C1990       C  0.77105709  0.66400069  0.40595258     0.01600
C1991       C  0.77232735  0.64511020  0.40709410     0.16600
C1992       C  0.76313162  0.62959828  0.38378721     0.26000
C1993       C  0.75266170  0.63276479  0.35862140    -0.40300
C1994       C  0.75154352  0.65178025  0.35749023     0.33100
C1995       C  0.77981844  0.67996638  0.43140243     0.01700
F1996       F  0.78277708  0.64182377  0.43062832    -0.12600
F1997       F  0.74120312  0.65529264  0.33404129    -0.13100
C1998       C  0.77238220  0.67332737  0.46135083     0.16600
C1999       C  0.77986949  0.68826242  0.48531460     0.26000
C2000       C  0.79506973  0.71039867  0.47997747    -0.40200
C2001       C  0.80258361  0.71701917  0.44987612     0.33000
C2002       C  0.79505822  0.70193973  0.42588660     0.14700
F2003       F  0.75730646  0.65235069  0.46734677    -0.12600
F2004       F  0.81738442  0.73802189  0.44358264    -0.13100
F2005       F  0.77176324  0.68093180  0.51369614    -0.15400
F2006       F  0.80288635  0.70876184  0.39726141    -0.14000
F2007       F  0.75840939  0.68483821  0.37970816    -0.14000
F2008       F  0.76499287  0.61175356  0.38550597    -0.15400
C2009       C  0.63806818  0.60848857  0.25153171     0.14700
C2010       C  0.64733224  0.63012280  0.24222192     0.01600
C2011       C  0.66947201  0.64215077  0.23532746     0.16600
C2012       C  0.68234404  0.63283541  0.23818350     0.26000
C2013       C  0.67326603  0.61116796  0.24798343    -0.40300
C2014       C  0.65084964  0.59902251  0.25426746     0.33100
C2015       C  0.63421841  0.64056171  0.24046270     0.01700
F2016       F  0.67875315  0.66318409  0.22651556    -0.12600
F2017       F  0.64126856  0.57809872  0.26368683    -0.13100
C2018       C  0.62610498  0.64447006  0.26725361     0.16600
C2019       C  0.61593663  0.65664469  0.26605794     0.26000
C2020       C  0.61345981  0.66481269  0.23793724    -0.40200
C2021       C  0.62075259  0.66001401  0.21095196     0.33000
C2022       C  0.63116513  0.64809830  0.21227241     0.14700
F2023       F  0.62880307  0.63721196  0.29472621    -0.12600
F2024       F  0.61880258  0.66777345  0.18345217    -0.13100
F2025       F  0.60861119  0.66053122  0.29240204    -0.15400
F2026       F  0.63869440  0.64426713  0.18608616    -0.14000
F2027       F  0.61660588  0.59652734  0.25795206    -0.14000
F2028       F  0.70370627  0.64514226  0.23133729    -0.15400
C2029       C  0.80968778  0.51432704  0.35406538     0.14700
C2030       C  0.81155124  0.52419309  0.32556297     0.01600
C2031       C  0.83031024  0.53118511  0.30802331     0.16600
C2032       C  0.84760411  0.52956581  0.31982510     0.26000
C2033       C  0.84630490  0.52120378  0.34939576    -0.40300
C2034       C  0.82699568  0.51297933  0.36599270     0.33100
C2035       C  0.79554830  0.53026795  0.31667134     0.01700
F2036       F  0.83249871  0.54106652  0.28059915    -0.12600
F2037       F  0.82518272  0.50424916  0.39424189    -0.13100
C2038       C  0.79370385  0.54534631  0.33462377     0.16600
C2039       C  0.77937445  0.55212368  0.32628656     0.26000
C2040       C  0.76661333  0.54400358  0.29961960    -0.40200
C2041       C  0.76822500  0.52858367  0.28184847     0.33000
C2042       C  0.78265354  0.52178927  0.29034241     0.14700
F2043       F  0.80638733  0.55408021  0.35983001    -0.12600
F2044       F  0.75572791  0.51994740  0.25647917    -0.13100
F2045       F  0.77870585  0.56733600  0.34375313    -0.15400
F2046       F  0.78397318  0.50688921  0.27303967    -0.14000
F2047       F  0.79148160  0.50705083  0.37101588    -0.14000
F2048       F  0.86617725  0.53774257  0.30349318    -0.15400
C2049       C  0.22711830  0.74239194  0.21869534     0.14700
C2050       C  0.21700338  0.73898110  0.18993434     0.01600
C2051       C  0.22399973  0.75632454  0.16944562     0.16600
C2052       C  0.23981408  0.77712082  0.17826073     0.26000
C2053       C  0.24890775  0.78100210  0.20785444    -0.40300
C2054       C  0.24308860  0.76336270  0.22764552     0.33100
C2055       C  0.19756424  0.71813006  0.18206836     0.01700
F2056       F  0.21465955  0.75323877  0.14135238    -0.12600
F2057       F  0.25150692  0.76662922  0.25636379    -0.13100
C2058       C  0.17739066  0.71677812  0.18089598     0.16600
C2059       C  0.15912487  0.69810897  0.17002117     0.26000
C2060       C  0.16074088  0.68043386  0.15986038    -0.40200
C2061       C  0.18094490  0.68165883  0.16172702     0.33000
C2062       C  0.19921218  0.70037808  0.17290173     0.14700
F2063       F  0.17556698  0.73391501  0.18942400    -0.12600
F2064       F  0.18306674  0.66483218  0.15253879    -0.13100
F2065       F  0.14011511  0.69782854  0.16797587    -0.15400
F2066       F  0.21865421  0.70151685  0.17367895    -0.14000
F2067       F  0.22052227  0.72570625  0.23873578    -0.14000
F2068       F  0.24557705  0.79370568  0.15824992    -0.15400
C2069       C  0.02737257  0.59574026  0.24680131     0.14700
C2070       C  0.01475944  0.57344437  0.25300789     0.01600
C2071       C  0.01894870  0.55906807  0.23714603     0.16600
C2072       C  0.03480280  0.56668586  0.21448489     0.26000
C2073       C  0.04705102  0.58899772  0.20746572    -0.40300
C2074       C  0.04349065  0.60346770  0.22452289     0.33100
C2075       C  0.99729861  0.56523100  0.27606963     0.01700
F2076       F  0.00769568  0.53756144  0.24367988    -0.12600
F2077       F  0.05502693  0.62510933  0.21902419    -0.13100
C2078       C  0.97599324  0.54908296  0.26846290     0.16600
C2079       C  0.95959248  0.54124429  0.29043834     0.26000
C2080       C  0.96416311  0.54963381  0.32039113    -0.40200
C2081       C  0.98555541  0.56609267  0.32766652     0.33000
C2082       C  0.00189250  0.57358571  0.30586199     0.14700
F2083       F  0.97100323  0.54102852  0.23960295    -0.12600
F2084       F  0.99090749  0.57506398  0.35600015    -0.13100
F2085       F  0.93937639  0.52526904  0.28240235    -0.15400
F2086       F  0.02240121  0.58877347  0.31413668    -0.14000
F2087       F  0.02358847  0.61003207  0.26159435    -0.14000
F2088       F  0.03796456  0.55210839  0.19932289    -0.15400
C2089       C  0.85362757  0.81546474  0.02518695     0.14700
C2090       C  0.86531721  0.80789742  0.00906208     0.01600
C2091       C  0.85878306  0.80015988  0.97907725     0.16600
C2092       C  0.84074997  0.79952917  0.96578394     0.26000
C2093       C  0.82835746  0.80615913  0.98233889    -0.40300
C2094       C  0.83520612  0.81437119  0.01219053     0.33100
C2095       C  0.88304573  0.80615815  0.02405919     0.01700
F2096       F  0.86932680  0.79230783  0.96289294    -0.12600
F2097       F  0.82409356  0.82126927  0.02900465    -0.13100
C2098       C  0.87935244  0.79514655  0.05215184     0.16600
C2099       C  0.89446265  0.79018694  0.06390082     0.26000
C2100       C  0.91325549  0.79549880  0.04732309    -0.40200
C2101       C  0.91760034  0.80764994  0.02017964     0.33000
C2102       C  0.90281872  0.81325855  0.00895396     0.14700
F2103       F  0.86034270  0.78765762  0.06715166    -0.12600
F2104       F  0.93592590  0.81365015  0.00408620    -0.13100
F2105       F  0.88976383  0.77857212  0.09025224    -0.15400
F2106       F  0.90750574  0.82501314  0.98272087    -0.14000
F2107       F  0.86001883  0.82391772  0.05366966    -0.14000
F2108       F  0.83533928  0.79200851  0.93668845    -0.15400
C2109       C  0.05906362  0.84098118  0.00959066     0.14700
C2110       C  0.05587930  0.85393009  0.98866661     0.01600
C2111       C  0.03482863  0.84900278  0.98129750     0.16600
C2112       C  0.01701689  0.83124598  0.99510478     0.26000
C2113       C  0.02018949  0.81833916  0.01653110    -0.40300
C2114       C  0.04143775  0.82337603  0.02346055     0.33100
C2115       C  0.07497836  0.87225739  0.97454353     0.01700
F2116       F  0.03158642  0.86145662  0.96100638    -0.12600
F2117       F  0.04522854  0.81109591  0.04337539    -0.13100
C2118       C  0.08395350  0.86870089  0.94848102     0.16600
C2119       C  0.10487703  0.88412352  0.93936376     0.26000
C2120       C  0.11716956  0.90316809  0.95655290    -0.40200
C2121       C  0.10763195  0.90725494  0.98158887     0.33000
C2122       C  0.08656081  0.89189909  0.99042064     0.14700
F2123       F  0.07305784  0.84957367  0.93330712    -0.12600
F2124       F  0.11894090  0.92578682  0.99798206    -0.13100
F2125       F  0.11376092  0.87957325  0.91533705    -0.15400
F2126       F  0.07791964  0.89555896  0.01556318    -0.14000
F2127       F  0.07939999  0.84543662  0.01649705    -0.14000
F2128       F  0.99678928  0.82708289  0.98817077    -0.15400
C2129       C  0.85590402  0.66828654  0.13916147     0.14700
C2130       C  0.84885939  0.67460633  0.16482999     0.01600
C2131       C  0.86185001  0.69556307  0.17667986     0.16600
C2132       C  0.88144435  0.71016056  0.16274306     0.26000
C2133       C  0.88852439  0.70390112  0.13694829    -0.40300
C2134       C  0.87561052  0.68274783  0.12542177     0.33100
C2135       C  0.82796728  0.65934252  0.17927358     0.01700
F2136       F  0.85566756  0.70179410  0.20204746    -0.12600
F2137       F  0.88161438  0.67625622  0.10012768    -0.13100
C2138       C  0.82401030  0.63922525  0.19006066     0.16600
C2139       C  0.80439422  0.62487966  0.20407627     0.26000
C2140       C  0.78840189  0.63050198  0.20783622    -0.40200
C2141       C  0.79240759  0.65067150  0.19691463     0.33000
C2142       C  0.81197376  0.66489462  0.18256218     0.14700
F2143       F  0.83939677  0.63368186  0.18771925    -0.12600
F2144       F  0.77727363  0.65651284  0.19961878    -0.13100
F2145       F  0.80139670  0.60576603  0.21479877    -0.15400
F2146       F  0.81520395  0.68399739  0.17144182    -0.14000
F2147       F  0.84340084  0.64827129  0.12687929    -0.14000
F2148       F  0.89359732  0.73030555  0.17475984    -0.15400
C2149       C  0.03094351  0.71562617  0.08398806     0.14700
C2150       C  0.02046431  0.69408577  0.09445469     0.01600
C2151       C  0.99875706  0.68416190  0.10376754     0.16600
C2152       C  0.98767191  0.69546526  0.10239757     0.26000
C2153       C  0.99816445  0.71711468  0.09207864    -0.40300
C2154       C  0.01998467  0.72706945  0.08298127     0.33100
C2155       C  0.03221012  0.68204701  0.09582129     0.01700
F2156       F  0.98835100  0.66357585  0.11474099    -0.12600
F2157       F  0.03058594  0.74767883  0.07210689    -0.13100
C2158       C  0.05170042  0.69042729  0.11240414     0.16600
C2159       C  0.06278257  0.67913576  0.11384259     0.26000
C2160       C  0.05459820  0.65914805  0.09873528    -0.40200
C2161       C  0.03504260  0.65074588  0.08217432     0.33000
C2162       C  0.02399443  0.66209934  0.08071033     0.14700
F2163       F  0.05983818  0.70942279  0.12774493    -0.12600
F2164       F  0.02626176  0.63124285  0.06805632    -0.13100
F2165       F  0.08169581  0.68795167  0.12979331    -0.15400
F2166       F  0.00532593  0.65367221  0.06424166    -0.14000
F2167       F  0.05169757  0.72544583  0.07396593    -0.14000
F2168       F  0.96672011  0.68524208  0.11163163    -0.15400
C2169       C  0.85502620  0.52529185  0.54926242     0.14700
C2170       C  0.86433326  0.51996265  0.57354299     0.01600
C2171       C  0.87625014  0.50991084  0.56734793     0.16600
C2172       C  0.87981298  0.50627990  0.53708197     0.26000
C2173       C  0.87181834  0.51306219  0.51253445    -0.40300
C2174       C  0.85878716  0.52195505  0.51897418     0.33100
C2175       C  0.86458866  0.52811616  0.60456165     0.01700
F2176       F  0.88556943  0.50486684  0.59057377    -0.12600
F2177       F  0.85038469  0.52820622  0.49593409    -0.13100
C2178       C  0.84750241  0.51646806  0.62503362     0.16600
C2179       C  0.84781728  0.52502649  0.65396177     0.26000
C2180       C  0.86528880  0.54550274  0.66276911    -0.40200
C2181       C  0.88234580  0.55704160  0.64179751     0.33000
C2182       C  0.88197463  0.54837121  0.61315623     0.14700
F2183       F  0.83046954  0.49688207  0.61690604    -0.12600
F2184       F  0.89955592  0.57681794  0.64879636    -0.13100
F2185       F  0.83084941  0.51342507  0.67300317    -0.15400
F2186       F  0.89857198  0.55991554  0.59348128    -0.14000
F2187       F  0.84342839  0.53499906  0.55490519    -0.14000
F2188       F  0.89260992  0.49782217  0.53186570    -0.15400
C2189       C  0.75726258  0.54870830  0.79066361     0.14700
C2190       C  0.74644518  0.53000634  0.80882891     0.01600
C2191       C  0.75632705  0.51779547  0.81491012     0.16600
C2192       C  0.77708648  0.52461694  0.80364273     0.26000
C2193       C  0.78829715  0.54395154  0.78675893    -0.40300
C2194       C  0.77804991  0.55570022  0.77989788     0.33100
C2195       C  0.72595375  0.52489249  0.82372706     0.01700
F2196       F  0.74619193  0.49975306  0.83262761    -0.12600
F2197       F  0.78850676  0.57439774  0.76354619    -0.13100
C2198       C  0.70741491  0.51925423  0.80609899     0.16600
C2199       C  0.68932303  0.51841347  0.81939855     0.26000
C2200       C  0.68962434  0.52355432  0.85061251    -0.40200
C2201       C  0.70782811  0.52784040  0.86854870     0.33000
C2202       C  0.72578911  0.52853372  0.85518368     0.14700
F2203       F  0.70716548  0.51529210  0.77571034    -0.12600
F2204       F  0.70853438  0.53181686  0.89900255    -0.13100
F2205       F  0.67195050  0.51346711  0.80133271    -0.15400
F2206       F  0.74356050  0.53399780  0.87266816    -0.14000
F2207       F  0.74818246  0.56094224  0.78492827    -0.14000
F2208       F  0.78683052  0.51324457  0.81107611    -0.15400
C2209       C  0.84899622  0.66307813  0.70634739     0.14700
C2210       C  0.85486580  0.66781535  0.67555066     0.01600
C2211       C  0.86575359  0.65866925  0.66126272     0.16600
C2212       C  0.87071206  0.64490516  0.67769804     0.26000
C2213       C  0.86462253  0.63992455  0.70865188    -0.40300
C2214       C  0.85383316  0.64938031  0.72276647     0.33100
C2215       C  0.84968285  0.68257260  0.65889140     0.01700
F2216       F  0.87165454  0.66315924  0.63146239    -0.12600
F2217       F  0.84787859  0.64544197  0.75261034    -0.13100
C2218       C  0.85919742  0.70421868  0.66816580     0.16600
C2219       C  0.85301951  0.71788418  0.65454934     0.26000
C2220       C  0.83703714  0.71010290  0.63137526    -0.40200
C2221       C  0.82775372  0.68839594  0.62180207     0.33000
C2222       C  0.83407641  0.67479038  0.63543324     0.14700
F2223       F  0.87444453  0.71207863  0.69067580    -0.12600
F2224       F  0.81276263  0.68035119  0.59896394    -0.13100
F2225       F  0.86245108  0.73863148  0.66454620    -0.15400
F2226       F  0.82456440  0.65385124  0.62626781    -0.14000
F2227       F  0.83815690  0.67148633  0.72043900    -0.14000
F2228       F  0.88097985  0.63610121  0.66308294    -0.15400
C2229       C  0.88355239  0.65604086  0.89120205     0.14700
C2230       C  0.89785935  0.65732762  0.91414105     0.01600
C2231       C  0.90524718  0.64264509  0.91410405     0.16600
C2232       C  0.89907012  0.62734467  0.89068968     0.26000
C2233       C  0.88519251  0.62636640  0.86691027    -0.40300
C2234       C  0.87714126  0.64066865  0.86792818     0.33100
C2235       C  0.90527089  0.67411138  0.93805620     0.01700
F2236       F  0.91892723  0.64351973  0.93641701    -0.12600
F2237       F  0.86335056  0.64019863  0.84611108    -0.13100
C2238       C  0.89849541  0.66819231  0.96833083     0.16600
C2239       C  0.90653070  0.68377562  0.99141674     0.26000
C2240       C  0.92171904  0.70566425  0.98467837    -0.40200
C2241       C  0.92784032  0.71167241  0.95400141     0.33000
C2242       C  0.91963987  0.69597875  0.93088431     0.14700
F2243       F  0.88412772  0.64722530  0.97553754    -0.12600
F2244       F  0.94244628  0.73250357  0.94650715    -0.13100
F2245       F  0.89942268  0.67734083  0.02044290    -0.15400
F2246       F  0.92633370  0.70197639  0.90161953    -0.14000
F2247       F  0.87578535  0.66973910  0.89135980    -0.14000
F2248       F  0.90693477  0.61373497  0.89121991    -0.15400
C2249       C  0.02213173  0.79421143  0.27650749     0.14700
C2250       C  0.01585102  0.80926005  0.26952724     0.01600
C2251       C  0.01783499  0.82406052  0.29194936     0.16600
C2252       C  0.02593783  0.82370421  0.32119051     0.26000
C2253       C  0.03205913  0.80835605  0.32852012    -0.40300
C2254       C  0.03007543  0.79367030  0.30555423     0.33100
C2255       C  0.00639820  0.80841439  0.23900845     0.01700
F2256       F  0.01188529  0.83880223  0.28552958    -0.12600
F2257       F  0.03555122  0.77846723  0.31107472    -0.13100
C2258       C  0.98388500  0.79593154  0.23478354     0.16600
C2259       C  0.97501299  0.79059346  0.20524723     0.26000
C2260       C  0.98860441  0.79754268  0.17943001    -0.40200
C2261       C  0.01106788  0.81139633  0.18377047     0.33000
C2262       C  0.01987079  0.81677048  0.21334203     0.14700
F2263       F  0.97062146  0.78754917  0.25933831    -0.12600
F2264       F  0.02459508  0.81910069  0.15940084    -0.13100
F2265       F  0.95330644  0.77709227  0.20209138    -0.15400
F2266       F  0.04166985  0.82916500  0.21698997    -0.14000
F2267       F  0.02015625  0.77965536  0.25513513    -0.14000
F2268       F  0.02764488  0.83831903  0.34223799    -0.15400
C2269       C  0.15434905  0.96844393  0.47549172     0.14700
C2270       C  0.14676761  0.94787033  0.48816028     0.01600
C2271       C  0.15591551  0.94567502  0.51529535     0.16600
C2272       C  0.17326155  0.96366275  0.52894715     0.26000
C2273       C  0.18187758  0.98441258  0.51566457    -0.40300
C2274       C  0.17174882  0.98669413  0.48922813     0.33100
C2275       C  0.13163317  0.92810836  0.47149113     0.01700
F2276       F  0.14864766  0.92578520  0.52778113    -0.12600
F2277       F  0.17887221  0.00640510  0.47628881    -0.13100
C2278       C  0.14019805  0.91754941  0.45502952     0.16600
C2279       C  0.12683218  0.89616866  0.44586116     0.26000
C2280       C  0.10463442  0.88517032  0.45264932    -0.40200
C2281       C  0.09573287  0.89625243  0.46711330     0.33000
C2282       C  0.10927441  0.91763741  0.47683202     0.14700
F2283       F  0.16184127  0.92747996  0.44996640    -0.12600
F2284       F  0.07435283  0.88581542  0.47415614    -0.13100
F2285       F  0.13572210  0.88588707  0.43146741    -0.15400
F2286       F  0.10088790  0.92755517  0.49331395    -0.14000
F2287       F  0.14541408  0.97072114  0.44930443    -0.14000
F2288       F  0.18197754  0.96042619  0.55466761    -0.15400
C2289       C  0.93352406  0.80009694  0.55004478     0.14700
C2290       C  0.93781404  0.80072670  0.51870988     0.01600
C2291       C  0.92251865  0.79940282  0.49735188     0.16600
C2292       C  0.90270672  0.79647373  0.50715163     0.26000
C2293       C  0.89784424  0.79486447  0.53867748    -0.40300
C2294       C  0.91383476  0.79735446  0.56000709     0.33100
C2295       C  0.95784621  0.80181009  0.50827422     0.01700
F2296       F  0.92638438  0.79995208  0.46689099    -0.12600
F2297       F  0.91020415  0.79624834  0.59059138    -0.13100
C2298       C  0.96095067  0.78429158  0.51347491     0.16600
C2299       C  0.97953231  0.78489088  0.50271258     0.26000
C2300       C  0.99539153  0.80309859  0.48652788    -0.40200
C2301       C  0.99229770  0.82078643  0.48180858     0.33000
C2302       C  0.97366013  0.82007655  0.49252890     0.14700
F2303       F  0.94559740  0.76628472  0.52815391    -0.12600
F2304       F  0.00734383  0.83887463  0.46695271    -0.13100
F2305       F  0.98153680  0.76728451  0.50715142    -0.15400
F2306       F  0.97105253  0.83728201  0.48765395    -0.14000
F2307       F  0.94830774  0.80172237  0.57103956    -0.14000
F2308       F  0.88807818  0.79449640  0.48562489    -0.15400
C2309       C  0.20516052  0.83617283  0.34562946     0.14700
C2310       C  0.18523427  0.82886119  0.33063004     0.01600
C2311       C  0.18453784  0.82926368  0.29855680     0.16600
C2312       C  0.20349512  0.83694115  0.28166773     0.26000
C2313       C  0.22352397  0.84449196  0.29661655    -0.40300
C2314       C  0.22419491  0.84405708  0.32877279     0.33100
C2315       C  0.16549456  0.82259415  0.34839611     0.01700
F2316       F  0.16557622  0.82288421  0.28361508    -0.12600
F2317       F  0.24314975  0.85067330  0.34386922    -0.13100
C2318       C  0.16507529  0.83781419  0.36779628     0.16600
C2319       C  0.14628805  0.83273225  0.38353069     0.26000
C2320       C  0.12739705  0.81222180  0.38020286    -0.40200
C2321       C  0.12780861  0.79691142  0.36069987     0.33000
C2322       C  0.14678159  0.80206461  0.34497778     0.14700
F2323       F  0.18272708  0.85798245  0.37067509    -0.12600
F2324       F  0.11000908  0.77693366  0.35711602    -0.13100
F2325       F  0.14644865  0.84830543  0.40117603    -0.15400
F2326       F  0.14695713  0.78700576  0.32656549    -0.14000
F2327       F  0.20612429  0.83554624  0.37664060    -0.14000
F2328       F  0.20232120  0.83750684  0.25067117    -0.15400
C2329       C  0.99511418  0.68523844  0.45704772     0.14700
C2330       C  0.98780921  0.67429409  0.42904764     0.01600
C2331       C  0.99406977  0.68621804  0.40160261     0.16600
C2332       C  0.00729893  0.70878476  0.40220065     0.26000
C2333       C  0.01455881  0.71976869  0.43029830    -0.40300
C2334       C  0.00842442  0.70770168  0.45770005     0.33100
C2335       C  0.97404186  0.65041486  0.42870007     0.01700
F2336       F  0.98763295  0.67597926  0.37419519    -0.12600
F2337       F  0.01556837  0.71757674  0.48525263    -0.13100
C2338       C  0.95355929  0.64016996  0.41449340     0.16600
C2339       C  0.94065997  0.61755463  0.41428890     0.26000
C2340       C  0.94807762  0.60484496  0.42834660    -0.40200
C2341       C  0.96840057  0.61524516  0.44317868     0.33000
C2342       C  0.98129465  0.63775194  0.44310271     0.14700
F2343       F  0.94605771  0.65208302  0.40080067    -0.12600
F2344       F  0.97594460  0.60362252  0.45766784    -0.13100
F2345       F  0.92134678  0.60814470  0.39931133    -0.15400
F2346       F  0.00118911  0.64718828  0.45646797    -0.14000
F2347       F  0.98914989  0.67414574  0.48391050    -0.14000
F2348       F  0.01260562  0.71987378  0.37533532    -0.15400
C2349       C  0.14679965  0.65310179  0.88750543     0.14700
C2350       C  0.15428645  0.66700402  0.91292618     0.01600
C2351       C  0.16679532  0.68944919  0.90794715     0.16600
C2352       C  0.17005288  0.69790867  0.87815126     0.26000
C2353       C  0.16062108  0.68403045  0.85274816    -0.40300
C2354       C  0.14984314  0.66148251  0.85775926     0.33100
C2355       C  0.14609146  0.65827375  0.94403828     0.01700
F2356       F  0.17437653  0.70328103  0.93204505    -0.12600
F2357       F  0.14147719  0.64744704  0.83396100    -0.13100
C2358       C  0.16010422  0.66164993  0.96880363     0.16600
C2359       C  0.15174332  0.65401167  0.99820351     0.26000
C2360       C  0.12919507  0.64297315  0.00333909    -0.40200
C2361       C  0.11531677  0.63954280  0.97826199     0.33000
C2362       C  0.12367125  0.64715422  0.94915949     0.14700
F2363       F  0.18185116  0.67227118  0.96451269    -0.12600
F2364       F  0.09347126  0.62867543  0.98167043    -0.13100
F2365       F  0.16574325  0.65785638  0.02166970    -0.15400
F2366       F  0.10973479  0.64413759  0.92593625    -0.14000
F2367       F  0.13548427  0.63130366  0.89164184    -0.14000
F2368       F  0.18102882  0.71974093  0.87452894    -0.15400
C2369       C  0.26399136  0.80082375  0.73152760     0.14700
C2370       C  0.27205406  0.79948266  0.70307162     0.01600
C2371       C  0.26098479  0.78043766  0.68584833     0.16600
C2372       C  0.24130020  0.76322889  0.69616872     0.26000
C2373       C  0.23248288  0.76488501  0.72394879    -0.40300
C2374       C  0.24437161  0.78357870  0.74206025     0.33100
C2375       C  0.29072917  0.81866554  0.68973913     0.01700
F2376       F  0.26877601  0.77897591  0.65832085    -0.12600
F2377       F  0.23621993  0.78593638  0.76873302    -0.13100
C2378       C  0.31180079  0.82299195  0.69518400     0.16600
C2379       C  0.32935578  0.84069224  0.68104544     0.26000
C2380       C  0.32593776  0.85415375  0.66111208    -0.40200
C2381       C  0.30472521  0.84984496  0.65608350     0.33000
C2382       C  0.28726928  0.83225577  0.67042199     0.14700
F2383       F  0.31526938  0.80980196  0.71365825    -0.12600
F2384       F  0.30089028  0.86275770  0.63752778    -0.13100
F2385       F  0.34956747  0.84413919  0.68589377    -0.15400
F2386       F  0.26690007  0.82830338  0.66526134    -0.14000
F2387       F  0.27449612  0.81931688  0.74820301    -0.14000
F2388       F  0.23049108  0.74526708  0.67849875    -0.15400
C2389       C  0.03456975  0.64031441  0.75525232     0.14700
C2390       C  0.02370819  0.65096551  0.76425898     0.01600
C2391       C  0.03572053  0.67254471  0.77407492     0.16600
C2392       C  0.05833694  0.68349488  0.77437864     0.26000
C2393       C  0.06934375  0.67301040  0.76474761    -0.40300
C2394       C  0.05719409  0.65121175  0.75551922     0.33100
C2395       C  0.99981369  0.63949971  0.76358439     0.01700
F2396       F  0.02550348  0.68297105  0.78356410    -0.12600
F2397       F  0.06716117  0.64067445  0.74546678    -0.13100
C2398       C  0.98774987  0.62174256  0.78294766     0.16600
C2399       C  0.96514593  0.61108686  0.78291054     0.26000
C2400       C  0.95412507  0.61798747  0.76330593    -0.40200
C2401       C  0.96636195  0.63559675  0.74342746     0.33000
C2402       C  0.98900541  0.64631400  0.74372141     0.14700
F2403       F  0.99794045  0.61497304  0.80238108    -0.12600
F2404       F  0.95651433  0.64283944  0.72415346    -0.13100
F2405       F  0.95409909  0.59390202  0.80194076    -0.15400
F2406       F  0.00042812  0.66331072  0.72450438    -0.14000
F2407       F  0.02322444  0.61953275  0.74527319    -0.14000
F2408       F  0.06943742  0.70432979  0.78422490    -0.15400
C2409       C  0.12391121  0.77479802  0.63547296     0.14700
C2410       C  0.11895053  0.76518260  0.60641965     0.01600
C2411       C  0.12212183  0.74772826  0.60088391     0.16600
C2412       C  0.12968380  0.73971406  0.62428725     0.26000
C2413       C  0.13377690  0.74877083  0.65381702    -0.40300
C2414       C  0.13109965  0.76661823  0.65896065     0.33100
C2415       C  0.10954971  0.77277932  0.58242836     0.01700
F2416       F  0.11763039  0.73829515  0.57286470    -0.12600
F2417       F  0.13541958  0.77618117  0.68689091    -0.13100
C2418       C  0.12213052  0.79311525  0.56845980     0.16600
C2419       C  0.11319023  0.80009651  0.54564194     0.26000
C2420       C  0.09131279  0.78692915  0.53651480    -0.40200
C2421       C  0.07861409  0.76682316  0.55142711     0.33000
C2422       C  0.08768808  0.75983278  0.57396053     0.14700
F2423       F  0.14324062  0.80606302  0.57654692    -0.12600
F2424       F  0.05751406  0.75350536  0.54362266    -0.13100
F2425       F  0.12603268  0.81975613  0.53248773    -0.15400
F2426       F  0.07505395  0.74034509  0.58767647    -0.14000
F2427       F  0.12110211  0.79171923  0.64139053    -0.14000
F2428       F  0.13202874  0.72250052  0.61843707    -0.15400
C2429       C  0.18469980  0.81338368  0.84213135     0.14700
C2430       C  0.17413078  0.82383360  0.83063558     0.01600
C2431       C  0.15892124  0.81430794  0.80695894     0.16600
C2432       C  0.15417543  0.79446450  0.79490061     0.26000
C2433       C  0.16462924  0.78373825  0.80637293    -0.40300
C2434       C  0.18000980  0.79346658  0.83012597     0.33100
C2435       C  0.17837559  0.84436807  0.84396344     0.01700
F2436       F  0.14889470  0.82445549  0.79516658    -0.12600
F2437       F  0.19038377  0.78369105  0.84197710    -0.13100
C2438       C  0.19898469  0.86301961  0.84184100     0.16600
C2439       C  0.20297187  0.88234589  0.85514399     0.26000
C2440       C  0.18631143  0.88322960  0.87047404    -0.40200
C2441       C  0.16555573  0.86460829  0.87195159     0.33000
C2442       C  0.16166594  0.84529440  0.85889510     0.14700
F2443       F  0.21512300  0.86252188  0.82661448    -0.12600
F2444       F  0.14926989  0.86483946  0.88717566    -0.13100
F2445       F  0.22297893  0.90025850  0.85265719    -0.15400
F2446       F  0.14172862  0.82728679  0.86153185    -0.14000
F2447       F  0.19927349  0.82231578  0.86537354    -0.14000
F2448       F  0.13972679  0.78611946  0.77141768    -0.15400
C2449       C  0.26931716  0.47729069  0.21818131     0.14700
C2450       C  0.27391024  0.47488823  0.18769925     0.01600
C2451       C  0.25708068  0.46641781  0.16596532     0.16600
C2452       C  0.23584509  0.45943743  0.17474376     0.26000
C2453       C  0.23103267  0.46113094  0.20537057    -0.40300
C2454       C  0.24802447  0.47067334  0.22690344     0.33100
C2455       C  0.29551071  0.47887424  0.17864979     0.01700
F2456       F  0.26104635  0.46375635  0.13646368    -0.12600
F2457       F  0.24379860  0.47225654  0.25669462    -0.13100
C2458       C  0.30240718  0.46484451  0.18893140     0.16600
C2459       C  0.32047122  0.46550639  0.17587450     0.26000
C2460       C  0.33208886  0.48028583  0.15206957    -0.40200
C2461       C  0.32597011  0.49539789  0.14344684     0.33000
C2462       C  0.30779659  0.49457645  0.15650181     0.14700
F2463       F  0.29076970  0.44948984  0.21029235    -0.12600
F2464       F  0.33716469  0.51066031  0.12179170    -0.13100
F2465       F  0.32584761  0.45090036  0.18569258    -0.15400
F2466       F  0.30172664  0.50868258  0.14679328    -0.14000
F2467       F  0.28532185  0.48542712  0.23959899    -0.14000
F2468       F  0.21982207  0.45050208  0.15337306    -0.15400
C2469       C  0.15580422  0.56157437  0.14909822     0.14700
C2470       C  0.14080881  0.53930956  0.15199159     0.01600
C2471       C  0.11890281  0.53136730  0.14545610     0.16600
C2472       C  0.11190731  0.54542879  0.13661563     0.26000
C2473       C  0.12672490  0.56785312  0.13408588    -0.40300
C2474       C  0.14883970  0.57579161  0.13993565     0.33100
C2475       C  0.14739385  0.52402649  0.16274742     0.01700
F2476       F  0.10413121  0.50992144  0.14840333    -0.12600
F2477       F  0.16353625  0.59729195  0.13782690    -0.13100
C2478       C  0.15268533  0.52378709  0.19367264     0.16600
C2479       C  0.15504327  0.50688755  0.20514315     0.26000
C2480       C  0.15195184  0.48991458  0.18580779    -0.40200
C2481       C  0.14753206  0.49071038  0.15457485     0.33000
C2482       C  0.14532475  0.50766928  0.14314603     0.14700
F2483       F  0.15410997  0.53912169  0.21314441    -0.12600
F2484       F  0.14498802  0.47486293  0.13520412    -0.13100
F2485       F  0.15880800  0.50633294  0.23554370    -0.15400
F2486       F  0.14033395  0.50773421  0.11312944    -0.14000
F2487       F  0.17709528  0.56948186  0.15526369    -0.14000
F2488       F  0.09052032  0.53698126  0.13038962    -0.15400
C2489       C  0.19480797  0.32827671  0.34511142     0.14700
C2490       C  0.17428296  0.32030224  0.33177592     0.01600
C2491       C  0.15894131  0.29812783  0.33366637     0.16600
C2492       C  0.16382509  0.28413950  0.34934163     0.26000
C2493       C  0.18426749  0.29213156  0.36352055    -0.40300
C2494       C  0.19979720  0.31437533  0.36077478     0.33100
C2495       C  0.16894744  0.33520551  0.31593660     0.01700
F2496       F  0.13922979  0.28997998  0.32007496    -0.12600
F2497       F  0.21986445  0.32283680  0.37329392    -0.13100
C2498       C  0.18125512  0.34735327  0.29083828     0.16600
C2499       C  0.17683291  0.36201811  0.27639111     0.26000
C2500       C  0.15978051  0.36477994  0.28666464    -0.40200
C2501       C  0.14731653  0.35235043  0.31177414     0.33000
C2502       C  0.15189038  0.33770970  0.32624258     0.14700
F2503       F  0.19753958  0.34487357  0.28008759    -0.12600
F2504       F  0.13074885  0.35434440  0.32253566    -0.13100
F2505       F  0.18945603  0.37354681  0.25239875    -0.15400
F2506       F  0.13994751  0.32628061  0.35077863    -0.14000
F2507       F  0.20992096  0.34969593  0.34350795    -0.14000
F2508       F  0.14834760  0.26283936  0.35086907    -0.15400
C2509       C  0.17452189  0.20202144  0.97117555     0.14700
C2510       C  0.15412930  0.19440716  0.98441767     0.01600
C2511       C  0.14917844  0.18275367  0.01205199     0.16600
C2512       C  0.16485706  0.17989077  0.02712470     0.26000
C2513       C  0.18583271  0.18881119  0.01485650    -0.40300
C2514       C  0.19020699  0.19929648  0.98619136     0.33100
C2515       C  0.13933434  0.20119079  0.97155636     0.01700
F2516       F  0.12965938  0.17543860  0.02549538    -0.12600
F2517       F  0.20990534  0.20742853  0.97292100    -0.13100
C2518       C  0.11826786  0.18603426  0.96157027     0.16600
C2519       C  0.10423165  0.19293990  0.95109461     0.26000
C2520       C  0.11101825  0.21515263  0.95075749    -0.40200
C2521       C  0.13247784  0.23024386  0.95984524     0.33000
C2522       C  0.14633411  0.22331563  0.97021968     0.14700
F2523       F  0.11129616  0.16456505  0.96203802    -0.12600
F2524       F  0.14020952  0.25188352  0.95898646    -0.13100
F2525       F  0.08388651  0.17785475  0.94210087    -0.15400
F2526       F  0.16652736  0.23832281  0.97997517    -0.14000
F2527       F  0.17953099  0.21288139  0.94412672    -0.14000
F2528       F  0.15991413  0.16966855  0.05466192    -0.15400
C2529       C  0.93805335  0.11692361  0.04916209     0.14700
C2530       C  0.94099563  0.12466963  0.01889496     0.01600
C2531       C  0.92303976  0.11678075  0.99920382     0.16600
C2532       C  0.90230955  0.10227560  0.00997136     0.26000
C2533       C  0.89911969  0.09521696  0.04060584    -0.40300
C2534       C  0.91722012  0.10207767  0.05990470     0.33100
C2535       C  0.96219203  0.14256081  0.00834603     0.01700
F2536       F  0.92544356  0.12413044  0.96995285    -0.12600
F2537       F  0.91462058  0.09552752  0.08955981    -0.13100
C2538       C  0.97265292  0.13968095  0.98341466     0.16600
C2539       C  0.99085944  0.15742912  0.97038220     0.26000
C2540       C  0.99881652  0.17850073  0.98192424    -0.40200
C2541       C  0.98874691  0.18109075  0.00783553     0.33000
C2542       C  0.97062890  0.16329731  0.02082639     0.14700
F2543       F  0.96478480  0.11971628  0.97109338    -0.12600
F2544       F  0.99604851  0.20091673  0.02031833    -0.13100
F2545       F  0.00005394  0.15399475  0.94568154    -0.15400
F2546       F  0.96055575  0.16652170  0.04461019    -0.14000
F2547       F  0.95527130  0.12427689  0.06847896    -0.14000
F2548       F  0.88519026  0.09550500  0.99057690    -0.15400
C2549       C  0.08280979  0.31826542  0.05615921     0.14700
C2550       C  0.10356179  0.32583817  0.06835645     0.01600
C2551       C  0.11566551  0.31662027  0.05882139     0.16600
C2552       C  0.10734675  0.30039167  0.03663479     0.26000
C2553       C  0.08669503  0.29303786  0.02384030    -0.40300
C2554       C  0.07433828  0.30187193  0.03421321     0.33100
C2555       C  0.11225866  0.34284195  0.09187921     0.01700
F2556       F  0.13571686  0.32365531  0.07061837    -0.12600
F2557       F  0.05442519  0.29530239  0.02225529    -0.13100
C2558       C  0.11510590  0.33772802  0.12186674     0.16600
C2559       C  0.12290058  0.35354911  0.14452943     0.26000
C2560       C  0.12794011  0.37476219  0.13753356    -0.40200
C2561       C  0.12498481  0.37988191  0.10749895     0.33000
C2562       C  0.11728662  0.36399940  0.08471636     0.14700
F2563       F  0.10981817  0.31723075  0.12930523    -0.12600
F2564       F  0.13001945  0.40030515  0.10012547    -0.13100
F2565       F  0.12478289  0.34792800  0.17362308    -0.15400
F2566       F  0.11500181  0.36927584  0.05560973    -0.14000
F2567       F  0.07076347  0.32677559  0.06558144    -0.14000
F2568       F  0.11948287  0.29186494  0.02768583    -0.15400
C2569       C  0.18356216  0.35705073  0.79306670     0.14700
C2570       C  0.18252803  0.34073185  0.81195332     0.01600
C2571       C  0.20055157  0.33810397  0.81441969     0.16600
C2572       C  0.21960907  0.35202299  0.79869834     0.26000
C2573       C  0.22080017  0.36866188  0.78010655    -0.40300
C2574       C  0.20249323  0.37088503  0.77724093     0.33100
C2575       C  0.16301391  0.32733278  0.83035495     0.01700
F2576       F  0.19964971  0.32204515  0.83205743    -0.12600
F2577       F  0.20315238  0.38704883  0.76015488    -0.13100
C2578       C  0.14279147  0.31455839  0.81611012     0.16600
C2579       C  0.12422063  0.30248001  0.83372011     0.26000
C2580       C  0.12567469  0.30287444  0.86590597    -0.40200
C2581       C  0.14596012  0.31602657  0.88004698     0.33000
C2582       C  0.16444979  0.32812258  0.86238928     0.14700
F2583       F  0.14113554  0.31342182  0.78511377    -0.12600
F2584       F  0.14791829  0.31734957  0.91100924    -0.13100
F2585       F  0.10501082  0.28980317  0.81921262    -0.15400
F2586       F  0.18376556  0.34091098  0.87657682    -0.14000
F2587       F  0.16646506  0.36013206  0.79091455    -0.14000
F2588       F  0.23677460  0.34909266  0.80146776    -0.15400
C2589       C  0.16065634  0.48563016  0.37071254     0.14700
C2590       C  0.15022313  0.47155615  0.39529384     0.01600
C2591       C  0.14321601  0.44952192  0.39248858     0.16600
C2592       C  0.14572216  0.44138088  0.36491435     0.26000
C2593       C  0.15524921  0.45520258  0.33954828    -0.40300
C2594       C  0.16331035  0.47756240  0.34302777     0.33100
C2595       C  0.14518694  0.47924363  0.42339569     0.01700
F2596       F  0.13324731  0.43575635  0.41625430    -0.12600
F2597       F  0.17271071  0.49145425  0.31923347    -0.13100
C2598       C  0.12532389  0.47841247  0.42571076     0.16600
C2599       C  0.11849566  0.48171092  0.45394425     0.26000
C2600       C  0.13156282  0.48603151  0.48019487    -0.40200
C2601       C  0.15209593  0.48828036  0.47733059     0.33000
C2602       C  0.15877226  0.48470346  0.44910287     0.14700
F2603       F  0.11204220  0.47320175  0.40095172    -0.12600
F2604       F  0.16490908  0.49215590  0.50230896    -0.13100
F2605       F  0.09880069  0.47995995  0.45585242    -0.15400
F2606       F  0.17791918  0.48531699  0.44719749    -0.14000
F2607       F  0.16759327  0.50702352  0.37323938    -0.14000
F2608       F  0.13849606  0.41988606  0.36294899    -0.15400
C2609       C  0.13084226  0.59263018  0.60899656     0.14700
C2610       C  0.14468664  0.60064932  0.63454299     0.01600
C2611       C  0.15518840  0.58981182  0.64496176     0.16600
C2612       C  0.15075834  0.57038972  0.63131561     0.26000
C2613       C  0.13554094  0.56147648  0.60743700    -0.40300
C2614       C  0.12617155  0.57305697  0.59567813     0.33100
C2615       C  0.14630774  0.61886376  0.65227953     0.01700
F2616       F  0.16881687  0.59747048  0.66941504    -0.12600
F2617       F  0.11152635  0.56472471  0.57243114    -0.13100
C2618       C  0.13775093  0.61519110  0.68193385     0.16600
C2619       C  0.13864924  0.63208647  0.69879665     0.26000
C2620       C  0.14818134  0.65313826  0.68627615    -0.40200
C2621       C  0.15667714  0.65666260  0.65632726     0.33000
C2622       C  0.15563487  0.63964235  0.63951884     0.14700
F2623       F  0.12801576  0.59501260  0.69432383    -0.12600
F2624       F  0.16585720  0.67651270  0.64300993    -0.13100
F2625       F  0.13004201  0.62765989  0.72732816    -0.15400
F2626       F  0.16383598  0.64346313  0.61076647    -0.14000
F2627       F  0.12058258  0.60287652  0.59848067    -0.14000
F2628       F  0.15981992  0.55933818  0.64317128    -0.15400
C2629       C  0.22713850  0.48112944  0.70447425     0.14700
C2630       C  0.21965833  0.47745697  0.67394515     0.01600
C2631       C  0.22772625  0.46824120  0.65354121     0.16600
C2632       C  0.24202620  0.46177544  0.66376979     0.26000
C2633       C  0.24861604  0.46437946  0.69460673    -0.40300
C2634       C  0.24157172  0.47469025  0.71470993     0.33100
C2635       C  0.20210532  0.48131749  0.66373911     0.01700
F2636       F  0.22077942  0.46430647  0.62401196    -0.12600
F2637       F  0.24752897  0.47725245  0.74465281    -0.13100
C2638       C  0.20460260  0.49371536  0.63742317     0.16600
C2639       C  0.18702297  0.49466083  0.62521572     0.26000
C2640       C  0.16647347  0.48326944  0.63919074    -0.40200
C2641       C  0.16438783  0.47184556  0.66656771     0.33000
C2642       C  0.18195527  0.47080503  0.67855426     0.14700
F2643       F  0.22403050  0.50456376  0.62308098    -0.12600
F2644       F  0.14520972  0.46121340  0.68156740    -0.13100
F2645       F  0.19006184  0.50613542  0.59905331    -0.15400
F2646       F  0.17890757  0.45852623  0.70385347    -0.14000
F2647       F  0.21999943  0.49041061  0.72455962    -0.14000
F2648       F  0.24905253  0.45241627  0.64361556    -0.15400
C2649       C  0.01754606  0.48352907  0.48844722     0.14700
C2650       C  0.00546565  0.48980627  0.50606538     0.01600
C2651       C  0.00825013  0.49171352  0.53784509     0.16600
C2652       C  0.02357135  0.48811733  0.55192905     0.26000
C2653       C  0.03620091  0.48235588  0.53434068    -0.40300
C2654       C  0.03276034  0.47964994  0.50253291     0.33100
C2655       C  0.99052056  0.49531042  0.49139866     0.01700
F2656       F  0.99652624  0.49768598  0.55507989    -0.12600
F2657       F  0.04477512  0.47424932  0.48495292    -0.13100
C2658       C  0.96816321  0.48128241  0.49398904     0.16600
C2659       C  0.95389199  0.48703276  0.48155346     0.26000
C2660       C  0.96185212  0.50706583  0.46634150    -0.40200
C2661       C  0.98446893  0.52113585  0.46397222     0.33000
C2662       C  0.99863906  0.51522286  0.47640436     0.14700
F2663       F  0.96018158  0.46195968  0.50855593    -0.12600
F2664       F  0.99299686  0.54056963  0.44954293    -0.13100
F2665       F  0.93230904  0.47288594  0.48446020    -0.15400
F2666       F  0.02034016  0.52908275  0.47428094    -0.14000
F2667       F  0.01479845  0.48150389  0.45762168    -0.14000
F2668       F  0.02609734  0.49035613  0.58277884    -0.15400
C2669       C  0.88234679  0.45418794  0.83376937     0.14700
C2670       C  0.87149730  0.45976474  0.85509083     0.01600
C2671       C  0.86671367  0.44988034  0.88415317     0.16600
C2672       C  0.87343466  0.43522550  0.89204776     0.26000
C2673       C  0.88531899  0.43060369  0.87111395    -0.40300
C2674       C  0.88919047  0.43981368  0.84167723     0.33100
C2675       C  0.86682436  0.47705219  0.84701869     0.01700
F2676       F  0.85595356  0.45475030  0.90500799    -0.12600
F2677       F  0.90005282  0.43521303  0.82061271    -0.13100
C2678       C  0.85435961  0.47487720  0.82094388     0.16600
C2679       C  0.85383894  0.49270231  0.80903161     0.26000
C2680       C  0.86579338  0.51324012  0.82305921    -0.40200
C2681       C  0.87704180  0.51494091  0.85053880     0.33000
C2682       C  0.87753058  0.49700984  0.86234973     0.14700
F2683       F  0.84341327  0.45559164  0.80616944    -0.12600
F2684       F  0.88816632  0.53408469  0.86559476    -0.13100
F2685       F  0.84238688  0.48991610  0.78287916    -0.15400
F2686       F  0.88960049  0.49950979  0.88773967    -0.14000
F2687       F  0.88732370  0.46356239  0.80562937    -0.14000
F2688       F  0.86942752  0.42655881  0.92062451    -0.15400
C2689       C  0.79297627  0.24393093  0.84348649     0.14700
C2690       C  0.80108034  0.26100433  0.82226107     0.01600
C2691       C  0.79205814  0.25725820  0.79277048     0.16600
C2692       C  0.77579733  0.23649146  0.78410626     0.26000
C2693       C  0.76833543  0.21901412  0.80484281    -0.40300
C2694       C  0.77671750  0.22315303  0.83496415     0.33100
C2695       C  0.81961005  0.28244698  0.83057958     0.01700
F2696       F  0.79922459  0.27372118  0.77221559    -0.12600
F2697       F  0.77001517  0.20696844  0.85591232    -0.13100
C2698       C  0.83927309  0.29098566  0.81480862     0.16600
C2699       C  0.85734010  0.31053384  0.82404167     0.26000
C2700       C  0.85608018  0.32189362  0.84942024    -0.40200
C2701       C  0.83601486  0.31348943  0.86451490     0.33000
C2702       C  0.81804437  0.29395810  0.85519796     0.14700
F2703       F  0.84121574  0.27991624  0.79117700    -0.12600
F2704       F  0.83378224  0.32374050  0.88896408    -0.13100
F2705       F  0.87611656  0.31801860  0.80841277    -0.15400
F2706       F  0.79909507  0.28610359  0.87051644    -0.14000
F2707       F  0.80157284  0.24715520  0.87210850    -0.14000
F2708       F  0.76767092  0.23351107  0.75522788    -0.15400
C2709       C  0.96821828  0.31553385  0.88779485     0.14700
C2710       C  0.98329492  0.32000840  0.91128664     0.01600
C2711       C  0.98746078  0.33608092  0.93280088     0.16600
C2712       C  0.97694279  0.34788479  0.93058013     0.26000
C2713       C  0.96194901  0.34373857  0.90669833    -0.40300
C2714       C  0.95754774  0.32717249  0.88552636     0.33100
C2715       C  0.99477471  0.30793085  0.91317496     0.01700
F2716       F  0.00203244  0.34058673  0.95570100    -0.12600
F2717       F  0.94286679  0.32206377  0.86259552    -0.13100
C2718       C  0.01104881  0.31204731  0.89209332     0.16600
C2719       C  0.02185658  0.30049512  0.89360043     0.26000
C2720       C  0.01641000  0.28440461  0.91620444    -0.40200
C2721       C  0.00002811  0.28047123  0.93742162     0.33000
C2722       C  0.98938987  0.29218392  0.93589054     0.14700
F2723       F  0.01670502  0.32756274  0.87031617    -0.12600
F2724       F  0.99413369  0.26523148  0.95966219    -0.13100
F2725       F  0.03793647  0.30545622  0.87325890    -0.15400
F2726       F  0.97360979  0.28799766  0.95641339    -0.14000
F2727       F  0.96371138  0.29970692  0.86714977    -0.14000
F2728       F  0.98166143  0.36346974  0.95173374    -0.15400
C2729       C  0.00288151  0.44655358  0.77547016     0.14700
C2730       C  0.00239041  0.43289660  0.75237390     0.01600
C2731       C  0.98619874  0.41092925  0.75258816     0.16600
C2732       C  0.97065913  0.40264708  0.77580055     0.26000
C2733       C  0.97113965  0.41626329  0.79932976    -0.40300
C2734       C  0.98752753  0.43837933  0.79878991     0.33100
C2735       C  0.01907533  0.44165714  0.72836026     0.01700
F2736       F  0.98538981  0.39754264  0.73015088    -0.12600
F2737       F  0.98922352  0.45212237  0.82128529    -0.13100
C2738       C  0.03464742  0.43546347  0.72715910     0.16600
C2739       C  0.05081645  0.44416527  0.70491022     0.26000
C2740       C  0.05163619  0.45922660  0.68327886    -0.40200
C2741       C  0.03583485  0.46533914  0.68467131     0.33000
C2742       C  0.01980531  0.45668026  0.70709535     0.14700
F2743       F  0.03430382  0.42110759  0.74780923    -0.12600
F2744       F  0.03538865  0.47921961  0.66386669    -0.13100
F2745       F  0.06552670  0.43765839  0.70452803    -0.15400
F2746       F  0.00465254  0.46261435  0.70768287    -0.14000
F2747       F  0.01867182  0.46778211  0.77586237    -0.14000
F2748       F  0.95521946  0.38131405  0.77515244    -0.15400
C2749       C  0.00458313  0.49362369  0.96058506     0.14700
C2750       C  0.00189897  0.49230331  0.99249180     0.01600
C2751       C  0.98739689  0.47229259  0.00605588     0.16600
C2752       C  0.97569960  0.45385684  0.98800415     0.26000
C2753       C  0.97813605  0.45518731  0.95602542    -0.40300
C2754       C  0.99267389  0.47521934  0.94243385     0.33100
C2755       C  0.01449209  0.51166623  0.01178798     0.01700
F2756       F  0.98418130  0.47073656  0.03677289    -0.12600
F2757       F  0.99561766  0.47688258  0.91166050    -0.13100
C2758       C  0.01255479  0.53001527  0.00783276     0.16600
C2759       C  0.02462597  0.54833315  0.02612941     0.26000
C2760       C  0.03872076  0.54849789  0.04883050    -0.40200
C2761       C  0.04047591  0.52995824  0.05277022     0.33000
C2762       C  0.02851406  0.51178319  0.03437355     0.14700
F2763       F  0.99872249  0.53005132  0.98652681    -0.12600
F2764       F  0.05436862  0.52961452  0.07370087    -0.13100
F2765       F  0.02228603  0.56575255  0.02189544    -0.15400
F2766       F  0.03104090  0.49442705  0.03808203    -0.14000
F2767       F  0.01900342  0.51266948  0.94710320    -0.14000
F2768       F  0.96129216  0.43488588  0.00169340    -0.15400
C2769       C  0.00426605  0.18121413  0.71125193     0.14700
C2770       C  0.00012689  0.19109609  0.73577624     0.01600
C2771       C  0.98624043  0.19921071  0.73139187     0.16600
C2772       C  0.97701362  0.19801771  0.70275371     0.26000
C2773       C  0.98151412  0.18866944  0.67772878    -0.40300
C2774       C  0.99487859  0.17982342  0.68244566     0.33100
C2775       C  0.01134144  0.19463641  0.76551734     0.01700
F2776       F  0.98234669  0.20918087  0.75467045    -0.12600
F2777       F  0.99967049  0.17073916  0.65894741    -0.13100
C2778       C  0.03337457  0.21051769  0.76801396     0.16600
C2779       C  0.04300064  0.21738377  0.79684843     0.26000
C2780       C  0.03084940  0.20811330  0.82349360    -0.40200
C2781       C  0.00917962  0.19133247  0.82101091     0.33000
C2782       C  0.99942474  0.18473360  0.79215109     0.14700
F2783       F  0.04509960  0.22049851  0.74260389    -0.12600
F2784       F  0.99702708  0.18262616  0.84650723    -0.13100
F2785       F  0.06392137  0.23380286  0.79885289    -0.15400
F2786       F  0.97804081  0.16955565  0.79016961    -0.14000
F2787       F  0.01771085  0.17331096  0.71510056    -0.14000
F2788       F  0.96385270  0.20631470  0.69951308    -0.15400
C2789       C  0.88995470  0.07747562  0.54741292     0.14700
C2790       C  0.87898987  0.07409041  0.51934084     0.01600
C2791       C  0.88371321  0.09190933  0.50076867     0.16600
C2792       C  0.89865535  0.11288194  0.51036274     0.26000
C2793       C  0.90939926  0.11654552  0.53878255    -0.40300
C2794       C  0.90523313  0.09857852  0.55698839     0.33100
C2795       C  0.86155083  0.05231176  0.50971305     0.01700
F2796       F  0.87317188  0.08900352  0.47369513    -0.12600
F2797       F  0.91506208  0.10147458  0.58464998    -0.13100
C2798       C  0.84073303  0.04354438  0.52194634     0.16600
C2799       C  0.82324216  0.02479749  0.50940870     0.26000
C2800       C  0.82622797  0.01435302  0.48423020    -0.40200
C2801       C  0.84745162  0.02281862  0.47289609     0.33000
C2802       C  0.86485542  0.04166695  0.48543724     0.14700
F2803       F  0.83715117  0.05379788  0.54513872    -0.12600
F2804       F  0.85138622  0.01339989  0.44893977    -0.13100
F2805       F  0.80330870  0.01726913  0.52157674    -0.15400
F2806       F  0.88489686  0.04997816  0.47322367    -0.14000
F2807       F  0.88552734  0.06040012  0.56574545    -0.14000
F2808       F  0.90239934  0.12969248  0.49187226    -0.15400
C2809       C  0.03977954  0.18679665  0.48514245     0.14700
C2810       C  0.05928875  0.19668763  0.50205156     0.01600
C2811       C  0.05960059  0.20505997  0.53125964     0.16600
C2812       C  0.04093236  0.20382958  0.54303600     0.26000
C2813       C  0.02178469  0.19465806  0.52561771    -0.40300
C2814       C  0.02126450  0.18603737  0.49670711     0.33100
C2815       C  0.07957475  0.19948062  0.48862073     0.01700
F2816       F  0.07822471  0.21528051  0.54787983    -0.12600
F2817       F  0.00280571  0.17689569  0.47969964    -0.13100
C2818       C  0.08675068  0.20952715  0.45989859     0.16600
C2819       C  0.10659295  0.21374527  0.44812640     0.26000
C2820       C  0.12002254  0.20852129  0.46514166    -0.40200
C2821       C  0.11261526  0.19794084  0.49351861     0.33000
C2822       C  0.09249286  0.19325754  0.50497192     0.14700
F2823       F  0.07508604  0.21635678  0.44385644    -0.12600
F2824       F  0.12486910  0.19215090  0.51023737    -0.13100
F2825       F  0.11322525  0.22416783  0.42083116    -0.15400
F2826       F  0.08568533  0.18274770  0.53217940    -0.14000
F2827       F  0.03866170  0.17788778  0.45738400    -0.14000
F2828       F  0.04174351  0.21229749  0.57105209    -0.15400
C2829       C  0.84830573  0.16271820  0.63092541     0.14700
C2830       C  0.84902117  0.17397298  0.65740374     0.01600
C2831       C  0.86905080  0.19093331  0.66792400     0.16600
C2832       C  0.88818804  0.19653971  0.65226377     0.26000
C2833       C  0.88759190  0.18531074  0.62549286    -0.40300
C2834       C  0.86730079  0.16832745  0.61507143     0.33100
C2835       C  0.82875592  0.16807800  0.67377587     0.01700
F2836       F  0.87010064  0.20188012  0.69372134    -0.12600
F2837       F  0.86566056  0.15684956  0.58958003    -0.13100
C2838       C  0.81691749  0.14797083  0.68852379     0.16600
C2839       C  0.79771647  0.14236148  0.70393807     0.26000
C2840       C  0.78987216  0.15682452  0.70478283    -0.40200
C2841       C  0.80170606  0.17684631  0.68930444     0.33000
C2842       C  0.82095816  0.18240468  0.67412509     0.14700
F2843       F  0.82416163  0.13383748  0.68837621    -0.12600
F2844       F  0.79478237  0.19123467  0.68876173    -0.13100
F2845       F  0.78695000  0.12280409  0.71809321    -0.15400
F2846       F  0.83188956  0.20170849  0.65932179    -0.14000
F2847       F  0.82908148  0.14639608  0.62019195    -0.14000
F2848       F  0.90721094  0.21292851  0.66338568    -0.15400
C2849       C  0.03615918  0.31454402  0.57342438     0.14700
C2850       C  0.02608288  0.32598131  0.58239052     0.01600
C2851       C  0.00444271  0.31445077  0.59213827     0.16600
C2852       C  0.99290511  0.29179617  0.59242518     0.26000
C2853       C  0.00278040  0.28027411  0.58271816    -0.40300
C2854       C  0.02459895  0.29187764  0.57347983     0.33100
C2855       C  0.03814080  0.34994727  0.58181110     0.01700
F2856       F  0.99428830  0.32517518  0.60049891    -0.12600
F2857       F  0.03481169  0.28126682  0.56483017    -0.13100
C2858       C  0.04536947  0.36130832  0.55400079     0.16600
C2859       C  0.05637925  0.38399903  0.55355749     0.26000
C2860       C  0.06065140  0.39566897  0.58103538    -0.40200
C2861       C  0.05337106  0.38415584  0.60882943     0.33000
C2862       C  0.04217289  0.36154729  0.60915486     0.14700
F2863       F  0.04142857  0.35037945  0.52723668    -0.12600
F2864       F  0.05652636  0.39476517  0.63573152    -0.13100
F2865       F  0.06311954  0.39452190  0.52635361    -0.15400
F2866       F  0.03534418  0.35092608  0.63628344    -0.14000
F2867       F  0.05727315  0.32536842  0.56489937    -0.14000
F2868       F  0.97177056  0.28114467  0.60083054    -0.15400
C2869       C  0.85553193  0.31024318  0.09960159     0.14700
C2870       C  0.86966966  0.33242436  0.09420599     0.01600
C2871       C  0.87871450  0.34652150  0.11918511     0.16600
C2872       C  0.87466592  0.33847907  0.14908348     0.26000
C2873       C  0.86151533  0.31606753  0.15466480    -0.40300
C2874       C  0.85141301  0.30209959  0.12958932     0.33100
C2875       C  0.87684979  0.34070481  0.06278421     0.01700
F2876       F  0.89216577  0.36808112  0.11450941    -0.12600
F2877       F  0.83879704  0.28039421  0.13384400    -0.13100
C2878       C  0.86235423  0.34026653  0.04066317     0.16600
C2879       C  0.86968990  0.34879117  0.01128746     0.26000
C2880       C  0.89169525  0.35779776  0.00351713    -0.40200
C2881       C  0.90603277  0.35782063  0.02590507     0.33000
C2882       C  0.89865321  0.34938521  0.05505589     0.14700
F2883       F  0.84117619  0.33192057  0.04771162    -0.12600
F2884       F  0.92737237  0.36612388  0.01989731    -0.13100
F2885       F  0.85520478  0.34812268  0.99054741    -0.15400
F2886       F  0.91288350  0.34952311  0.07583502    -0.14000
F2887       F  0.84687691  0.29628157  0.07576037    -0.14000
F2888       F  0.88423252  0.35263734  0.17253812    -0.15400
C2889       C  0.74973990  0.21145830  0.28443500     0.14700
C2890       C  0.74530209  0.21165362  0.31567278     0.01600
C2891       C  0.76078012  0.22838636  0.33424778     0.16600
C2892       C  0.78112628  0.24340581  0.32261082     0.26000
C2893       C  0.78636316  0.24214035  0.29193430    -0.40300
C2894       C  0.77004803  0.22665046  0.27259750     0.33100
C2895       C  0.72593522  0.19303867  0.32972100     0.01700
F2896       F  0.75649241  0.22959633  0.36415390    -0.12600
F2897       F  0.77415284  0.22513578  0.24272770    -0.13100
C2898       C  0.72870859  0.18122839  0.35322232     0.16600
C2899       C  0.71089507  0.16307042  0.36597655     0.26000
C2900       C  0.68975522  0.15607863  0.35536028    -0.40200
C2901       C  0.68696981  0.16803277  0.33184598     0.33000
C2902       C  0.70491245  0.18635163  0.31921658     0.14700
F2903       F  0.74886143  0.18691365  0.36327417    -0.12600
F2904       F  0.66690808  0.16220875  0.32124239    -0.13100
F2905       F  0.71455500  0.15208085  0.38830126    -0.15400
F2906       F  0.70172315  0.19769469  0.29693924    -0.14000
F2907       F  0.73501024  0.19558824  0.26585935    -0.14000
F2908       F  0.79593207  0.25873898  0.34175067    -0.15400
C2909       C  0.88767989  0.38777374  0.32199302     0.14700
C2910       C  0.87121608  0.38451844  0.34219329     0.01600
C2911       C  0.85508318  0.36337112  0.35000540     0.16600
C2912       C  0.85514777  0.34560887  0.33709778     0.26000
C2913       C  0.87142989  0.34884387  0.31623852    -0.40300
C2914       C  0.88782858  0.37015279  0.30912568     0.33100
C2915       C  0.87111475  0.40346530  0.35468594     0.01700
F2916       F  0.83900113  0.35997466  0.36947260    -0.12600
F2917       F  0.90419772  0.37399921  0.28992202    -0.13100
C2918       C  0.86711911  0.41661958  0.33517821     0.16600
C2919       C  0.87024355  0.43637453  0.34554209     0.26000
C2920       C  0.87745454  0.44331106  0.37566549    -0.40200
C2921       C  0.88044539  0.42951773  0.39561218     0.33000
C2922       C  0.87729058  0.40975197  0.38512775     0.14700
F2923       F  0.86090556  0.41061313  0.30571797    -0.12600
F2924       F  0.88794741  0.43579866  0.42457927    -0.13100
F2925       F  0.86676876  0.44896565  0.32581403    -0.15400
F2926       F  0.88160611  0.39738580  0.40411615    -0.14000
F2927       F  0.90373835  0.40814274  0.31484791    -0.14000
F2928       F  0.83887468  0.32532965  0.34416547    -0.15400
C2929       C  0.91819392  0.24793589  0.37049249     0.14700
C2930       C  0.90954799  0.24501931  0.40002730     0.01600
C2931       C  0.89247947  0.24889631  0.40497308     0.16600
C2932       C  0.88390038  0.25507459  0.38073045     0.26000
C2933       C  0.89244217  0.25784218  0.35101818    -0.40300
C2934       C  0.90992190  0.25444662  0.34637572     0.33100
C2935       C  0.91773133  0.23706546  0.42525404     0.01700
F2936       F  0.88413402  0.24679780  0.43341513    -0.12600
F2937       F  0.91925668  0.25752712  0.31845782    -0.13100
C2938       C  0.93997981  0.24749058  0.43232706     0.16600
C2939       C  0.94756624  0.23950792  0.45561481     0.26000
C2940       C  0.93298895  0.22105800  0.47268372    -0.40200
C2941       C  0.91069622  0.21072315  0.46544784     0.33000
C2942       C  0.90324719  0.21853132  0.44193306     0.14700
F2943       F  0.95437714  0.26573016  0.41711006    -0.12600
F2944       F  0.89588264  0.19288360  0.48100174    -0.13100
F2945       F  0.96913441  0.25019391  0.46179724    -0.15400
F2946       F  0.88177154  0.20763485  0.43508248    -0.14000
F2947       F  0.93434757  0.24391476  0.36470857    -0.14000
F2948       F  0.86703063  0.25801507  0.38636788    -0.15400
C2949       C  0.98368329  0.32629073  0.23151752     0.14700
C2950       C  0.99566696  0.34796650  0.24088145     0.01600
C2951       C  0.98479490  0.35855274  0.24990323     0.16600
C2952       C  0.96215567  0.34756456  0.24995854     0.26000
C2953       C  0.94990269  0.32560585  0.24113968    -0.40300
C2954       C  0.96100706  0.31514633  0.23170753     0.33100
C2955       C  0.01957332  0.35976492  0.24058725     0.01700
F2956       F  0.99617473  0.37959309  0.25877165    -0.12600
F2957       F  0.95000075  0.29416123  0.22252353    -0.13100
C2958       C  0.03069306  0.36974295  0.21363201     0.16600
C2959       C  0.05333284  0.38114962  0.21312970     0.26000
C2960       C  0.06539181  0.38274599  0.23974019    -0.40200
C2961       C  0.05401801  0.37267711  0.26685640     0.33000
C2962       C  0.03131254  0.36134255  0.26721750     0.14700
F2963       F  0.01954090  0.36842528  0.18770961    -0.12600
F2964       F  0.06478156  0.37393199  0.29314870    -0.13100
F2965       F  0.06334118  0.39030703  0.18631321    -0.15400
F2966       F  0.02072881  0.35184300  0.29357068    -0.14000
F2967       F  0.99399725  0.31589979  0.22232763    -0.14000
F2968       F  0.95232271  0.35837682  0.25938157    -0.15400
C2969       C  0.82714716  0.18801717  0.15947379     0.14700
C2970       C  0.83707833  0.17635492  0.16837590     0.01600
C2971       C  0.85242582  0.18419129  0.19210154     0.16600
C2972       C  0.85786660  0.20348159  0.20684229     0.26000
C2973       C  0.84796802  0.21533407  0.19814755    -0.40300
C2974       C  0.83245660  0.20732809  0.17430231     0.33100
C2975       C  0.83198759  0.15624218  0.15256107     0.01700
F2976       F  0.86242389  0.17326197  0.20068290    -0.12600
F2977       F  0.82265915  0.21829312  0.16494903    -0.13100
C2978       C  0.83803083  0.15694946  0.12197560     0.16600
C2979       C  0.83493843  0.13825506  0.10767811     0.26000
C2980       C  0.82564161  0.11844899  0.12380197    -0.40200
C2981       C  0.81913859  0.11775559  0.15433424     0.33000
C2982       C  0.82235976  0.13653390  0.16857635     0.14700
F2983       F  0.84758253  0.17593892  0.10624808    -0.12600
F2984       F  0.81027864  0.09909532  0.17079483    -0.13100
F2985       F  0.84105959  0.13961362  0.07803627    -0.15400
F2986       F  0.81629408  0.13557397  0.19816880    -0.14000
F2987       F  0.81220056  0.18058955  0.13656159    -0.14000
F2988       F  0.87263629  0.21032648  0.22995169    -0.15400
loop_ 
_geom_bond_atom_site_label_1 
_geom_bond_atom_site_label_2 
_geom_bond_distance 
_geom_bond_site_symmetry_2 
_ccdc_geom_bond_type 
Zn1           O5   1.951       .  S
Zn1           O6   2.041       .  S
Zn1          O10   2.010       .  S
Zn1          O17   2.022       .  S
Zn2           O5   1.942       .  S
Zn2           O7   2.000       .  S
Zn2           O9   1.997       .  S
Zn2          O13   2.019       .  S
Zn3           O5   1.962       .  S
Zn3           O8   2.039       .  S
Zn3          O11   2.017       .  S
Zn3          O14   2.041       .  S
Zn4           O5   1.929       .  S
Zn4          O12   1.999       .  S
Zn4          O15   2.013       .  S
Zn4          O16   1.998       .  S
O6           C18   1.276       .  A
O7           C19   1.273       .  A
O8           C20   1.278       .  A
O9           C18   1.272       .  A
O10          C20   1.275       .  A
O11          C19   1.273       .  A
O12          C21   1.273       .  A
O13          C22   1.273       .  A
O14          C21   1.277       .  A
O15          C22   1.273       .  A
O16          C23   1.272       .  A
O17          C23   1.274       .  A
C18        C2933   1.490       .  S
C19        C2973   1.482       .  S
C20        C2893   1.488       .  S
C21        C2873   1.486       .  S
C22        C2953   1.489       .  S
C23        C2913   1.480       .  S
Zn24         O28   1.923       .  S
Zn24         O29   1.993       .  S
Zn24         O33   1.998       .  S
Zn24         O40   1.985       .  S
Zn25         O28   1.957       .  S
Zn25         O30   2.015       .  S
Zn25         O32   2.043       .  S
Zn25         O36   2.029       .  S
Zn26         O28   1.950       .  S
Zn26         O31   2.039       .  S
Zn26         O34   2.031       .  S
Zn26         O37   1.998       .  S
Zn27         O28   1.968       .  S
Zn27         O35   2.040       .  S
Zn27         O38   2.031       .  S
Zn27         O39   2.065       .  S
O29          C41   1.271       .  A
O30          C42   1.274       .  A
O31          C43   1.274       .  A
O32          C41   1.276       .  A
O33          C43   1.272       .  A
O34          C42   1.276       .  A
O35          C44   1.277       .  A
O36          C45   1.276   1_655  A
O37          C44   1.274       .  A
O38          C45   1.275   1_655  A
O39          C46   1.279       .  A
O40          C46   1.272       .  A
C41        C2940   1.491       .  S
C42        C2853   1.480   1_655  S
C43        C2833   1.493       .  S
C44        C2773   1.484       .  S
C45        C2813   1.472       .  S
C46        C2793   1.485       .  S
Zn47         O51   1.951       .  S
Zn47         O52   2.012       .  S
Zn47         O56   2.032       .  S
Zn47         O63   2.020       .  S
Zn48         O51   1.933       .  S
Zn48         O53   2.007       .  S
Zn48         O55   2.010       .  S
Zn48         O59   1.985       .  S
Zn49         O51   1.927       .  S
Zn49         O54   1.997       .  S
Zn49         O57   2.003       .  S
Zn49         O60   1.994       .  S
Zn50         O51   1.959       .  S
Zn50         O58   2.050       .  S
Zn50         O61   2.050       .  S
Zn50         O62   2.009       .  S
O52          C64   1.273       .  A
O53          C65   1.273       .  A
O54          C66   1.272       .  A
O55          C64   1.273       .  A
O56          C66   1.275       .  A
O57          C65   1.271       .  A
O58          C67   1.277       .  A
O59          C68   1.270       .  A
O60          C67   1.273       .  A
O61          C68   1.277       .  A
O62          C69   1.274       .  A
O63          C69   1.276       .  A
C64        C2713   1.488       .  S
C65        C2753   1.473       .  S
C66        C2733   1.488       .  S
C67        C2673   1.479       .  S
C68        C2880   1.492   1_556  S
C69        C2700   1.487       .  S
Zn70         O74   1.947       .  S
Zn70         O75   2.002       .  S
Zn70         O79   2.012       .  S
Zn70         O86   2.022       .  S
Zn71         O74   1.960       .  S
Zn71         O76   2.018       .  S
Zn71         O78   2.034       .  S
Zn71         O82   1.995       .  S
Zn72         O74   1.935       .  S
Zn72         O77   1.994       .  S
Zn72         O80   1.973       .  S
Zn72         O83   1.985       .  S
Zn73         O74   1.964       .  S
Zn73         O81   2.046       .  S
Zn73         O84   2.035       .  S
Zn73         O85   2.028       .  S
O75          C87   1.272       .  A
O76          C88   1.272       .  A
O77          C89   1.270       .  A
O78          C87   1.275       .  A
O79          C89   1.272       .  A
O80          C88   1.268       .  A
O81          C90   1.276       .  A
O82          C91   1.273       .  A
O83          C90   1.270       .  A
O84          C91   1.277       .  A
O85          C92   1.275       .  A
O86          C92   1.275       .  A
C87        C2860   1.482       .  S
C88        C2653   1.471       .  S
C89        C2740   1.486       .  S
C90        C2613   1.468       .  S
C91        C2600   1.474       .  S
C92        C2640   1.493       .  S
Zn93         O97   1.930       .  S
Zn93         O98   1.991       .  S
Zn93        O102   1.986       .  S
Zn93        O109   1.982       .  S
Zn94         O97   1.948       .  S
Zn94         O99   2.013       .  S
Zn94        O101   2.012       .  S
Zn94        O105   2.009       .  S
Zn95         O97   1.948       .  S
Zn95        O100   2.006       .  S
Zn95        O103   2.022       .  S
Zn95        O106   1.994       .  S
Zn96         O97   1.967       .  S
Zn96        O104   2.042       .  S
Zn96        O107   2.024       .  S
Zn96        O108   2.059       .  S
O98         C110   1.270       .  A
O99         C111   1.273       .  A
O100        C112   1.271       .  A
O101        C110   1.272       .  A
O102        C112   1.269       .  A
O103        C111   1.274       .  A
O104        C113   1.277       .  A
O105        C114   1.275       .  A
O106        C113   1.272       .  A
O107        C114   1.275       .  A
O108        C115   1.278       .  A
O109        C115   1.270       .  A
C110       C2553   1.475   1_556  S
C111       C2720   1.489       .  S
C112       C2580   1.475       .  S
C113       C2780   1.468       .  S
C114       C2540   1.488   1_455  S
C115       C2520   1.491       .  S
Zn116       O120   1.953       .  S
Zn116       O121   2.006       .  S
Zn116       O125   2.034       .  S
Zn116       O132   2.040       .  S
Zn117       O120   1.958       .  S
Zn117       O122   2.055       .  S
Zn117       O124   2.025       .  S
Zn117       O128   2.020       .  S
Zn118       O120   1.915       .  S
Zn118       O123   1.978       .  S
Zn118       O126   1.997       .  S
Zn118       O129   1.981       .  S
Zn119       O120   1.948       .  S
Zn119       O127   2.028       .  S
Zn119       O130   2.011       .  S
Zn119       O131   2.014       .  S
O121        C133   1.274       .  A
O122        C134   1.277       .  A
O123        C135   1.269       .  A
O124        C133   1.276       .  A
O125        C135   1.276       .  A
O126        C134   1.272       .  A
O127        C136   1.273       .  A
O128        C137   1.275       .  A
O129        C136   1.269       .  A
O130        C137   1.275       .  A
O131        C138   1.274       .  A
O132        C138   1.277       .  A
C133       C2593   1.482       .  S
C134       C2453   1.479       .  S
C135       C2500   1.486       .  S
C136       C2560   1.470       .  S
C137       C2480   1.476       .  S
C138       C2960   1.493       .  S
Zn139       O143   1.960       .  S
Zn139       O144   2.060       .  S
Zn139       O148   2.014       .  S
Zn139       O155   2.011       .  S
Zn140       O143   1.941       .  S
Zn140       O145   1.991       .  S
Zn140       O147   2.003       .  S
Zn140       O151   1.979       .  S
Zn141       O143   1.951       .  S
Zn141       O146   2.019       .  S
Zn141       O149   2.026       .  S
Zn141       O152   2.036       .  S
Zn142       O143   1.965       .  S
Zn142       O150   2.033       .  S
Zn142       O153   2.009       .  S
Zn142       O154   2.005       .  S
O144        C156   1.276       .  A
O145        C157   1.271       .  A
O146        C158   1.275       .  A
O147        C156   1.270       .  A
O148        C158   1.275       .  A
O149        C157   1.276       .  A
O150        C159   1.275       .  A
O151        C160   1.269       .  A
O152        C159   1.276       .  A
O153        C160   1.272       .  A
O154        C161   1.274       .  A
O155        C161   1.275       .  A
C156       C2413   1.489       .  S
C157       C2393   1.480       .  S
C158       C2620   1.489       .  S
C159       C2353   1.493       .  S
C160       C2433   1.478       .  S
C161       C2373   1.475       .  S
Zn162       O166   1.938       .  S
Zn162       O167   2.025       .  S
Zn162       O171   1.991       .  S
Zn162       O178   1.977       .  S
Zn163       O166   1.952       .  S
Zn163       O168   2.030       .  S
Zn163       O170   2.043       .  S
Zn163       O174   1.996       .  S
Zn164       O166   1.965       .  S
Zn164       O169   2.018       .  S
Zn164       O172   2.007       .  S
Zn164       O175   2.039       .  S
Zn165       O166   1.963       .  S
Zn165       O173   2.016       .  S
Zn165       O176   2.020       .  S
Zn165       O177   2.033       .  S
O167        C179   1.273       .  A
O168        C180   1.277       .  A
O169        C181   1.273       .  A
O170        C179   1.276       .  A
O171        C181   1.272       .  A
O172        C180   1.273       .  A
O173        C182   1.274       .  A
O174        C183   1.272       .  A
O175        C182   1.275       .  A
O176        C183   1.275       .  A
O177        C184   1.275       .  A
O178        C184   1.269       .  A
C179       C2420   1.497       .  S
C180       C2300   1.485   1_455  S
C181       C2280   1.467       .  S
C182       C2253   1.496       .  S
C183       C2333   1.479       .  S
C184       C2320   1.479       .  S
Zn185       O189   1.966       .  S
Zn185       O190   2.045       .  S
Zn185       O194   2.042       .  S
Zn185       O201   2.018       .  S
Zn186       O189   1.962       .  S
Zn186       O191   2.044       .  S
Zn186       O193   2.004       .  S
Zn186       O197   2.026       .  S
Zn187       O189   1.932       .  S
Zn187       O192   1.981       .  S
Zn187       O195   1.984       .  S
Zn187       O198   1.992       .  S
Zn188       O189   1.963       .  S
Zn188       O196   2.040       .  S
Zn188       O199   2.017       .  S
Zn188       O200   2.039       .  S
O190        C202   1.277       .  A
O191        C203   1.275       .  A
O192        C204   1.270       .  A
O193        C202   1.274       .  A
O194        C204   1.275       .  A
O195        C203   1.269       .  A
O196        C205   1.276       .  A
O197        C206   1.276       .  A
O198        C205   1.270       .  A
O199        C206   1.274       .  A
O200        C207   1.277       .  A
O201        C207   1.274       .  A
C202       C2180   1.492       .  S
C203       C2213   1.488       .  S
C204       C2193   1.473       .  S
C205       C2233   1.491       .  S
C206       C2400   1.486       .  S
C207       C2680   1.494       .  S
Zn208       O212   1.944       .  S
Zn208       O213   2.011       .  S
Zn208       O217   1.985       .  S
Zn208       O224   1.992       .  S
Zn209       O212   1.944       .  S
Zn209       O214   1.997   1_655  S
Zn209       O216   2.032       .  S
Zn209       O220   2.021       .  S
Zn210       O212   1.965       .  S
Zn210       O215   2.045       .  S
Zn210       O218   2.017       .  S
Zn210       O221   2.014       .  S
Zn211       O212   1.959       .  S
Zn211       O219   2.028       .  S
Zn211       O222   2.031       .  S
Zn211       O223   2.009       .  S
O213        C225   1.272       .  A
O214        C226   1.273       .  A
O215        C227   1.276       .  A
O216        C225   1.275       .  A
O217        C227   1.270       .  A
O218        C226   1.274   1_655  A
O219        C228   1.276       .  A
O220        C229   1.275       .  A
O221        C228   1.274       .  A
O222        C229   1.276       .  A
O223        C230   1.272       .  A
O224        C230   1.271       .  A
C225       C2153   1.488       .  S
C226       C2113   1.478       .  S
C227       C2240   1.485   1_554  S
C228       C2100   1.481       .  S
C229       C2260   1.485       .  S
C230       C2133   1.476       .  S
Zn231       O235   1.948       .  S
Zn231       O236   2.026       .  S
Zn231       O240   2.003       .  S
Zn231       O247   2.031       .  S
Zn232       O235   1.928       .  S
Zn232       O237   1.975       .  S
Zn232       O239   1.988       .  S
Zn232       O243   1.995       .  S
Zn233       O235   1.968       .  S
Zn233       O238   2.048       .  S
Zn233       O241   2.048       .  S
Zn233       O244   2.021       .  S
Zn234       O235   1.945       .  S
Zn234       O242   2.008       .  S
Zn234       O245   2.020       .  S
Zn234       O246   2.013       .  S
O236        C248   1.274       .  A
O237        C249   1.270       .  A
O238        C250   1.278       .  A
O239        C248   1.269       .  A
O240        C250   1.274       .  A
O241        C249   1.277       .  A
O242        C251   1.274       .  A
O243        C252   1.270       .  A
O244        C251   1.275       .  A
O245        C252   1.275       .  A
O246        C253   1.273       .  A
O247        C253   1.276       .  A
C248       C2760   1.480       .  S
C249       C2473   1.480       .  S
C250       C2360   1.491       .  S
C251       C2060   1.480       .  S
C252       C2073   1.485       .  S
C253       C2160   1.485       .  S
Zn254       O258   1.932       .  S
Zn254       O259   1.999       .  S
Zn254       O263   2.036       .  S
Zn254       O270   2.019       .  S
Zn255       O258   1.955       .  S
Zn255       O260   2.042       .  S
Zn255       O262   2.029       .  S
Zn255       O266   2.021       .  S
Zn256       O258   1.927       .  S
Zn256       O261   1.981       .  S
Zn256       O264   1.969       .  S
Zn256       O267   1.987       .  S
Zn257       O258   1.942       .  S
Zn257       O265   1.991       .  S
Zn257       O268   2.009       .  S
Zn257       O269   2.019       .  S
O259        C271   1.274       .  A
O260        C272   1.276       .  A
O261        C273   1.270       .  A
O262        C271   1.275       .  A
O263        C273   1.275       .  A
O264        C272   1.268       .  A
O265        C274   1.270       .  A
O266        C275   1.276       .  A
O267        C274   1.269       .  A
O268        C275   1.274       .  A
O269        C276   1.274       .  A
O270        C276   1.275       .  A
C271       C2033   1.469       .  S
C272       C2080   1.486       .  S
C273       C2340   1.479       .  S
C274       C2660   1.479       .  S
C275       C2920   1.482       .  S
C276       C2173   1.482       .  S
Zn277       O281   1.951       .  S
Zn277       O282   1.989       .  S
Zn277       O286   2.032       .  S
Zn277       O293   2.014       .  S
Zn278       O281   1.947       .  S
Zn278       O283   2.020       .  S
Zn278       O285   2.020       .  S
Zn278       O289   2.023       .  S
Zn279       O281   1.931       .  S
Zn279       O284   2.021       .  S
Zn279       O287   2.014       .  S
Zn279       O290   2.010       .  S
Zn280       O281   1.948       .  S
Zn280       O288   2.015       .  S
Zn280       O291   2.036       .  S
Zn280       O292   1.997       .  S
O282        C294   1.271       .  A
O283        C295   1.276       .  A
O284        C296   1.274       .  A
O285        C294   1.275       .  A
O286        C296   1.274       .  A
O287        C295   1.274       .  A
O288        C297   1.275       .  A
O289        C298   1.274       .  A
O290        C297   1.275       .  A
O291        C298   1.275       .  A
O292        C299   1.273       .  A
O293        C299   1.274       .  A
C294       C2140   1.477       .  S
C295       C2013   1.488       .  S
C296       C1953   1.495       .  S
C297       C1980   1.482       .  S
C298       C1993   1.489       .  S
C299       C2040   1.478       .  S
Zn300       O304   1.942       .  S
Zn300       O305   2.004       .  S
Zn300       O309   2.015       .  S
Zn300       O316   1.992       .  S
Zn301       O304   1.941       .  S
Zn301       O306   2.022       .  S
Zn301       O308   2.029       .  S
Zn301       O312   2.001       .  S
Zn302       O304   1.950       .  S
Zn302       O307   2.012       .  S
Zn302       O310   2.040       .  S
Zn302       O313   2.015       .  S
Zn303       O304   1.963       .  S
Zn303       O311   2.015       .  S
Zn303       O314   2.035       .  S
Zn303       O315   2.050       .  S
O305        C317   1.273       .  A
O306        C318   1.274       .  A
O307        C319   1.273       .  A
O308        C317   1.276       .  A
O309        C319   1.273       .  A
O310        C318   1.276       .  A
O311        C320   1.275       .  A
O312        C321   1.273       .  A
O313        C320   1.276       .  A
O314        C321   1.276       .  A
O315        C322   1.277       .  A
O316        C322   1.270       .  A
C317       C1933   1.484       .  S
C318       C1900   1.475       .  S
C319       C2220   1.486       .  S
C320       C2293   1.489       .  S
C321       C1920   1.476       .  S
C322       C2000   1.493       .  S
Zn323       O327   1.944       .  S
Zn323       O328   2.038       .  S
Zn323       O332   1.999       .  S
Zn323       O339   2.017       .  S
Zn324       O327   1.949       .  S
Zn324       O329   2.008       .  S
Zn324       O331   2.024       .  S
Zn324       O335   2.030       .  S
Zn325       O327   1.963       .  S
Zn325       O330   2.031       .  S
Zn325       O333   2.046       .  S
Zn325       O336   2.009       .  S
Zn326       O327   1.958       .  S
Zn326       O334   2.032       .  S
Zn326       O337   2.017       .  S
Zn326       O338   2.040       .  S
O328        C340   1.276       .  A
O329        C341   1.272       .  A
O330        C342   1.275       .  A
O331        C340   1.276       .  A
O332        C342   1.273       .  A
O333        C341   1.277       .  A
O334        C343   1.276       .  A
O335        C344   1.276       .  A
O336        C343   1.273       .  A
O337        C344   1.274       .  A
O338        C345   1.276       .  A
O339        C345   1.275       .  A
C340       C1833   1.498       .  S
C341       C1853   1.495   1_556  S
C342       C2093   1.491       .  S
C343       C1820   1.489       .  S
C344       C1880   1.488       .  S
C345       C1893   1.481       .  S
Zn346       O350   1.945       .  S
Zn346       O351   2.024       .  S
Zn346       O355   2.013       .  S
Zn346       O362   1.976       .  S
Zn347       O350   1.946       .  S
Zn347       O352   2.026       .  S
Zn347       O354   2.002       .  S
Zn347       O358   1.991       .  S
Zn348       O350   1.945       .  S
Zn348       O353   2.009       .  S
Zn348       O356   2.016       .  S
Zn348       O359   2.012       .  S
Zn349       O350   1.982       .  S
Zn349       O357   2.037       .  S
Zn349       O360   2.042       .  S
Zn349       O361   2.066       .  S
O351        C363   1.273       .  A
O352        C364   1.273       .  A
O353        C365   1.273       .  A
O354        C363   1.271       .  A
O355        C365   1.274       .  A
O356        C364   1.273       .  A
O357        C366   1.277       .  A
O358        C367   1.273       .  A
O359        C366   1.275       .  A
O360        C367   1.277       .  A
O361        C368   1.279       .  A
O362        C368   1.269       .  A
C363       C1800   1.476       .  S
C364       C1860   1.488       .  S
C365       C2020   1.477       .  S
C366       C1753   1.485       .  S
C367       C1780   1.474       .  S
C368       C1733   1.494       .  S
Zn369       O373   1.950       .  S
Zn369       O374   2.021       .  S
Zn369       O378   2.018       .  S
Zn369       O385   2.026       .  S
Zn370       O373   1.952       .  S
Zn370       O375   2.017       .  S
Zn370       O377   2.012       .  S
Zn370       O381   2.036       .  S
Zn371       O373   1.959       .  S
Zn371       O376   2.035       .  S
Zn371       O379   2.047       .  S
Zn371       O382   2.013       .  S
Zn372       O373   1.949       .  S
Zn372       O380   2.003       .  S
Zn372       O383   2.011       .  S
Zn372       O384   2.017       .  S
O374        C386   1.275       .  A
O375        C387   1.274       .  A
O376        C388   1.276       .  A
O377        C386   1.274       .  A
O378        C388   1.275       .  A
O379        C387   1.278       .  A
O380        C389   1.273       .  A
O381        C390   1.275       .  A
O382        C389   1.275       .  A
O383        C390   1.272       .  A
O384        C391   1.274       .  A
O385        C391   1.275       .  A
C386       C1940   1.483       .  S
C387       C1720   1.499       .  S
C388       C1673   1.490       .  S
C389       C1653   1.486       .  S
C390       C1700   1.486       .  S
C391       C1740   1.482       .  S
Zn392       O396   1.957       .  S
Zn392       O397   2.062       .  S
Zn392       O401   2.017       .  S
Zn392       O408   2.032       .  S
Zn393       O396   1.947       .  S
Zn393       O398   2.029       .  S
Zn393       O400   2.010       .  S
Zn393       O404   2.024       .  S
Zn394       O396   1.954       .  S
Zn394       O399   2.009       .  S
Zn394       O402   2.005       .  S
Zn394       O405   2.039       .  S
Zn395       O396   1.945       .  S
Zn395       O403   2.025       .  S
Zn395       O406   2.031       .  S
Zn395       O407   2.019       .  S
O397        C409   1.278       .  A
O398        C410   1.276       .  A
O399        C411   1.274       .  A
O400        C409   1.271       .  A
O401        C411   1.276       .  A
O402        C410   1.272       .  A
O403        C412   1.275       .  A
O404        C413   1.277       .  A
O405        C412   1.276       .  A
O406        C413   1.276       .  A
O407        C414   1.276       .  A
O408        C414   1.276       .  A
C409       C1713   1.483       .  S
C410       C1633   1.490       .  S
C411       C1613   1.486       .  S
C412       C1960   1.494   1_556  S
C413       C1840   1.482       .  S
C414       C2200   1.491       .  S
Zn415       O419   1.934       .  S
Zn415       O420   2.000       .  S
Zn415       O424   1.983       .  S
Zn415       O431   1.988       .  S
Zn416       O419   1.956       .  S
Zn416       O421   2.013       .  S
Zn416       O423   2.036       .  S
Zn416       O427   2.016       .  S
Zn417       O419   1.971       .  S
Zn417       O422   2.042       .  S
Zn417       O425   2.018       .  S
Zn417       O428   2.056       .  S
Zn418       O419   1.950       .  S
Zn418       O426   2.002       .  S
Zn418       O429   2.024       .  S
Zn418       O430   2.034       .  S
O420        C432   1.271       .  A
O421        C433   1.275       .  A
O422        C434   1.276       .  A
O423        C432   1.274       .  A
O424        C434   1.271       .  A
O425        C433   1.275       .  A
O426        C435   1.273       .  A
O427        C436   1.274       .  A
O428        C435   1.278       .  A
O429        C436   1.275       .  A
O430        C437   1.275       .  A
O431        C437   1.270       .  A
C432       C1580   1.491       .  S
C433       C1553   1.488       .  S
C434       C1973   1.475       .  S
C435       C1533   1.493       .  S
C436       C1600   1.491       .  S
C437       C1693   1.484       .  S
Zn438       O442   1.953       .  S
Zn438       O443   2.012       .  S
Zn438       O447   2.028       .  S
Zn438       O454   2.045       .  S
Zn439       O442   1.975       .  S
Zn439       O444   2.047       .  S
Zn439       O446   2.070       .  S
Zn439       O450   2.059       .  S
Zn440       O442   1.950       .  S
Zn440       O445   2.007       .  S
Zn440       O448   2.021       .  S
Zn440       O451   2.023       .  S
Zn441       O442   1.927       .  S
Zn441       O449   2.006       .  S
Zn441       O452   1.973       .  S
Zn441       O453   1.985       .  S
O443        C455   1.275       .  A
O444        C456   1.279       .  A
O445        C457   1.273       .  A
O446        C455   1.281       .  A
O447        C457   1.276       .  A
O448        C456   1.276       .  A
O449        C458   1.271       .  A
O450        C459   1.279       .  A
O451        C458   1.273       .  A
O452        C459   1.271       .  A
O453        C460   1.269       .  A
O454        C460   1.275       .  A
C455       C1493   1.500   1_554  S
C456       C2460   1.496       .  S
C457       C1513   1.490       .  S
C458       C1573   1.492       .  S
C459       C1760   1.487       .  S
C460       C1640   1.485       .  S
Zn461       O465   1.952       .  S
Zn461       O466   2.026       .  S
Zn461       O470   2.027       .  S
Zn461       O477   2.007       .  S
Zn462       O465   1.959       .  S
Zn462       O467   2.023       .  S
Zn462       O469   2.022       .  S
Zn462       O473   2.040       .  S
Zn463       O465   1.939       .  S
Zn463       O468   2.009       .  S
Zn463       O471   2.000       .  S
Zn463       O474   2.017       .  S
Zn464       O465   1.949       .  S
Zn464       O472   2.016       .  S
Zn464       O475   1.995       .  S
Zn464       O476   2.015       .  S
O466        C478   1.276       .  A
O467        C479   1.275       .  A
O468        C480   1.274       .  A
O469        C478   1.275       .  A
O470        C480   1.276       .  A
O471        C479   1.273       .  A
O472        C481   1.274       .  A
O473        C482   1.277       .  A
O474        C481   1.272       .  A
O475        C482   1.272       .  A
O476        C483   1.274       .  A
O477        C483   1.272       .  A
C478       C2820   1.485       .  S
C479       C1453   1.477       .  S
C480       C1440   1.486       .  S
C481       C1593   1.491       .  S
C482       C1473   1.481       .  S
C483       C2493   1.487       .  S
Zn484       O488   1.933       .  S
Zn484       O489   1.991       .  S
Zn484       O493   2.019       .  S
Zn484       O500   1.998       .  S
Zn485       O488   1.950       .  S
Zn485       O490   2.030       .  S
Zn485       O492   2.015       .  S
Zn485       O496   2.018       .  S
Zn486       O488   1.942       .  S
Zn486       O491   2.015       .  S
Zn486       O494   1.987       .  S
Zn486       O497   1.995       .  S
Zn487       O488   1.965       .  S
Zn487       O495   2.023       .  S
Zn487       O498   2.060       .  S
Zn487       O499   2.058       .  S
O489        C501   1.272       .  A
O490        C502   1.276       .  A
O491        C503   1.272       .  A
O492        C501   1.274       .  A
O493        C503   1.272       .  A
O494        C502   1.270       .  A
O495        C504   1.275       .  A
O496        C505   1.274       .  A
O497        C504   1.273       .  A
O498        C505   1.278       .  A
O499        C506   1.279       .  A
O500        C506   1.273       .  A
C501       C2573   1.475       .  S
C502       C1420   1.486       .  S
C503       C1480   1.486       .  S
C504       C1660   1.482       .  S
C505       C1500   1.483       .  S
C506       C2633   1.479       .  S
Zn507       O511   1.981       .  S
Zn507       O512   2.047       .  S
Zn507       O516   2.054       .  S
Zn507       O523   2.064       .  S
Zn508       O511   1.948       .  S
Zn508       O513   2.013       .  S
Zn508       O515   2.009       .  S
Zn508       O519   2.019       .  S
Zn509       O511   1.957       .  S
Zn509       O514   1.990       .  S
Zn509       O517   2.026       .  S
Zn509       O520   2.035       .  S
Zn510       O511   1.933       .  S
Zn510       O518   1.978       .  S
Zn510       O521   1.998       .  S
Zn510       O522   1.990       .  S
O512        C524   1.277       .  A
O513        C525   1.273       .  A
O514        C526   1.273       .  A
O515        C524   1.275       .  A
O516        C526   1.278       .  A
O517        C525   1.274       .  A
O518        C527   1.268       .  A
O519        C528   1.273       .  A
O520        C527   1.274       .  A
O521        C528   1.270       .  A
O522        C529   1.272       .  A
O523        C529   1.279       .  A
C524       C2513   1.488       .  S
C525       C1520   1.490       .  S
C526       C1433   1.479       .  S
C527       C1393   1.483       .  S
C528       C1380   1.489   1_554  S
C529       C1353   1.488       .  S
Zn530       O534   1.927       .  S
Zn530       O535   1.982       .  S
Zn530       O539   1.969       .  S
Zn530       O546   1.990       .  S
Zn531       O534   1.978       .  S
Zn531       O536   2.069       .  S
Zn531       O538   2.078       .  S
Zn531       O542   2.035       .  S
Zn532       O534   1.952       .  S
Zn532       O537   2.007       .  S
Zn532       O540   1.990       .  S
Zn532       O543   2.016       .  S
Zn533       O534   1.952       .  S
Zn533       O541   2.020       .  S
Zn533       O544   1.991       .  S
Zn533       O545   2.032       .  S
O535        C547   1.270       .  A
O536        C548   1.280       .  A
O537        C549   1.271       .  A
O538        C547   1.280       .  A
O539        C549   1.268       .  A
O540        C548   1.272       .  A
O541        C550   1.273       .  A
O542        C551   1.278       .  A
O543        C550   1.273       .  A
O544        C551   1.273       .  A
O545        C552   1.274       .  A
O546        C552   1.270       .  A
C547       C1320   1.485       .  S
C548       C1540   1.488       .  S
C549       C1333   1.478       .  S
C550       C1413   1.478       .  S
C551       C1620   1.485       .  S
C552       C1373   1.487       .  S
Zn553       O557   1.934       .  S
Zn553       O558   1.989       .  S
Zn553       O562   2.010       .  S
Zn553       O569   2.005       .  S
Zn554       O557   1.963       .  S
Zn554       O559   2.044       .  S
Zn554       O561   2.040       .  S
Zn554       O565   2.011       .  S
Zn555       O557   1.946       .  S
Zn555       O560   2.017       .  S
Zn555       O563   1.985       .  S
Zn555       O566   2.014       .  S
Zn556       O557   1.956       .  S
Zn556       O564   2.023       .  S
Zn556       O567   2.023       .  S
Zn556       O568   2.036       .  S
O558        C570   1.271       .  A
O559        C571   1.277       .  A
O560        C572   1.273       .  A
O561        C570   1.276       .  A
O562        C572   1.274       .  A
O563        C571   1.270       .  A
O564        C573   1.274       .  A
O565        C574   1.274       .  A
O566        C573   1.273       .  A
O567        C574   1.275       .  A
O568        C575   1.276       .  A
O569        C575   1.273       .  A
C570       C1773   1.486       .  S
C571       C1260   1.483       .  S
C572       C1273   1.490       .  S
C573       C1293   1.485       .  S
C574       C1233   1.490       .  S
C575       C1213   1.490       .  S
Zn576       O580   1.953       .  S
Zn576       O581   2.026       .  S
Zn576       O585   2.005       .  S
Zn576       O592   2.026       .  S
Zn577       O580   1.935       .  S
Zn577       O582   2.018       .  S
Zn577       O584   2.020       .  S
Zn577       O588   2.011       .  S
Zn578       O580   1.942       .  S
Zn578       O583   1.991       .  S
Zn578       O586   2.007       .  S
Zn578       O589   1.985       .  S
Zn579       O580   1.952       .  S
Zn579       O587   2.037       .  S
Zn579       O590   2.020       .  S
Zn579       O591   1.999       .  S
O581        C593   1.275       .  A
O582        C594   1.274       .  A
O583        C595   1.270       .  A
O584        C593   1.275       .  A
O585        C595   1.272       .  A
O586        C594   1.273       .  A
O587        C596   1.275       .  A
O588        C597   1.275       .  A
O589        C596   1.269       .  A
O590        C597   1.274       .  A
O591        C598   1.273       .  A
O592        C598   1.276       .  A
C593       C1140   1.494       .  S
C594       C1193   1.486       .  S
C595       C1173   1.461       .  S
C596       C1253   1.475       .  S
C597       C2900   1.488       .  S
C598       C1160   1.488       .  S
Zn599       O603   1.931       .  S
Zn599       O604   1.988       .  S
Zn599       O608   1.994       .  S
Zn599       O615   2.002       .  S
Zn600       O603   1.969       .  S
Zn600       O605   2.053       .  S
Zn600       O607   2.054       .  S
Zn600       O611   2.023       .  S
Zn601       O603   1.945       .  S
Zn601       O606   2.014       .  S
Zn601       O609   2.003       .  S
Zn601       O612   2.019       .  S
Zn602       O603   1.954       .  S
Zn602       O610   2.015       .  S
Zn602       O613   2.025       .  S
Zn602       O614   2.039       .  S
O604        C616   1.272       .  A
O605        C617   1.278       .  A
O606        C618   1.273       .  A
O607        C616   1.278       .  A
O608        C618   1.271       .  A
O609        C617   1.273       .  A
O610        C619   1.273       .  A
O611        C620   1.276       .  A
O612        C619   1.275       .  A
O613        C620   1.277       .  A
O614        C621   1.275       .  A
O615        C621   1.270       .  A
C616       C2533   1.477       .  S
C617       C1100   1.482       .  S
C618       C2980   1.480       .  S
C619       C1280   1.491       .  S
C620       C1813   1.491   1_545  S
C621       C1120   1.495   1_554  S
Zn622       O626   1.944       .  S
Zn622       O627   2.023       .  S
Zn622       O631   2.003       .  S
Zn622       O638   2.003       .  S
Zn623       O626   1.955       .  S
Zn623       O628   2.039       .  S
Zn623       O630   2.022       .  S
Zn623       O634   2.012       .  S
Zn624       O626   1.931       .  S
Zn624       O629   2.001       .  S
Zn624       O632   1.994       .  S
Zn624       O635   1.995       .  S
Zn625       O626   1.962       .  S
Zn625       O633   2.052       .  S
Zn625       O636   2.012       .  S
Zn625       O637   2.052       .  S
O627        C639   1.273       .  A
O628        C640   1.276       .  A
O629        C641   1.272       .  A
O630        C639   1.275       .  A
O631        C641   1.273       .  A
O632        C640   1.271       .  A
O633        C642   1.277       .  A
O634        C643   1.276       .  A
O635        C642   1.271       .  A
O636        C643   1.275       .  A
O637        C644   1.278       .  A
O638        C644   1.272       .  A
C639       C2840   1.494       .  S
C640       C1133   1.491       .  S
C641       C1073   1.479       .  S
C642       C1053   1.491       .  S
C643       C2693   1.484       .  S
C644       C1113   1.496       .  S
Zn645       O649   1.917       .  S
Zn645       O650   1.993       .  S
Zn645       O654   1.963       .  S
Zn645       O661   1.980       .  S
Zn646       O649   1.949       .  S
Zn646       O651   2.026       .  S
Zn646       O653   2.039       .  S
Zn646       O657   2.003       .  S
Zn647       O649   1.969       .  S
Zn647       O652   2.057       .  S
Zn647       O655   2.033       .  S
Zn647       O658   2.048       .  S
Zn648       O649   1.958       .  S
Zn648       O656   2.012       .  S
Zn648       O659   2.039       .  S
Zn648       O660   2.058       .  S
O650        C662   1.270       .  A
O651        C663   1.276       .  A
O652        C664   1.278       .  A
O653        C662   1.275       .  A
O654        C664   1.269       .  A
O655        C663   1.276       .  A
O656        C665   1.275       .  A
O657        C666   1.274       .  A
O658        C665   1.279       .  A
O659        C666   1.278       .  A
O660        C667   1.277       .  A
O661        C667   1.268       .  A
C662       C1040   1.491       .  S
C663       C2800   1.495   1_565  S
C664       C1913   1.482       .  S
C665       C1093   1.489       .  S
C666       C1200   1.490       .  S
C667       C1793   1.491       .  S
Zn668       O672   1.960       .  S
Zn668       O673   2.033       .  S
Zn668       O677   2.023       .  S
Zn668       O684   2.026       .  S
Zn669       O672   1.939       .  S
Zn669       O674   2.021       .  S
Zn669       O676   2.003       .  S
Zn669       O680   2.018       .  S
Zn670       O672   1.940       .  S
Zn670       O675   2.014       .  S
Zn670       O678   1.996       .  S
Zn670       O681   1.983       .  S
Zn671       O672   1.965       .  S
Zn671       O679   2.053       .  S
Zn671       O682   2.050       .  S
Zn671       O683   2.023       .  S
O673        C685   1.276       .  A
O674        C686   1.274       .  A
O675        C687   1.273       .  A
O676        C685   1.273       .  A
O677        C687   1.273       .  A
O678        C686   1.272       .  A
O679        C688   1.278       .  A
O680        C689   1.275       .  A
O681        C688   1.270       .  A
O682        C689   1.277       .  A
O683        C690   1.277       .  A
O684        C690   1.277       .  A
C685       C1220   1.489       .  S
C686       C1080   1.473       .  S
C687       C1873   1.484       .  S
C688       C1033   1.492       .  S
C689       C1020   1.480       .  S
C690       C1680   1.488       .  S
Zn691       O695   1.959       .  S
Zn691       O696   2.052   1_556  S
Zn691       O700   2.030       .  S
Zn691       O707   2.036       .  S
Zn692       O695   1.931       .  S
Zn692       O697   1.999       .  S
Zn692       O699   1.974       .  S
Zn692       O703   1.987       .  S
Zn693       O695   1.938       .  S
Zn693       O698   1.988       .  S
Zn693       O701   1.996       .  S
Zn693       O704   1.995       .  S
Zn694       O695   1.940       .  S
Zn694       O702   2.015       .  S
Zn694       O705   2.035       .  S
Zn694       O706   2.010       .  S
O696        C708   1.278   1_554  A
O697        C709   1.270       .  A
O698        C710   1.271       .  A
O699        C708   1.269       .  A
O700        C710   1.276       .  A
O701        C709   1.270       .  A
O702        C711   1.275       .  A
O703        C712   1.270       .  A
O704        C711   1.272       .  A
O705        C712   1.275       .  A
O706        C713   1.275       .  A
O707        C713   1.277       .  A
C708        C993   1.488   1_556  S
C709       C2440   1.469       .  S
C710       C2120   1.472       .  S
C711        C960   1.485       .  S
C712        C980   1.479       .  S
C713       C1360   1.484   1_565  S
Zn714       O718   1.936       .  S
Zn714       O719   2.024       .  S
Zn714       O723   2.021       .  S
Zn714       O730   1.998       .  S
Zn715       O718   1.918       .  S
Zn715       O720   1.990       .  S
Zn715       O722   1.980       .  S
Zn715       O726   1.970       .  S
Zn716       O718   1.945       .  S
Zn716       O721   2.013       .  S
Zn716       O724   2.028       .  S
Zn716       O727   2.015       .  S
Zn717       O718   1.965       .  S
Zn717       O725   2.031       .  S
Zn717       O728   2.057       .  S
Zn717       O729   2.057       .  S
O719        C731   1.274       .  A
O720        C732   1.269       .  A
O721        C733   1.274       .  A
O722        C731   1.269       .  A
O723        C733   1.275       .  A
O724        C732   1.275       .  A
O725        C734   1.277       .  A
O726        C735   1.270       .  A
O727        C734   1.276       .  A
O728        C735   1.278       .  A
O729        C736   1.279       .  A
O730        C736   1.273       .  A
C731       C2313   1.474       .  S
C732       C1000   1.486       .  S
C733        C933   1.488       .  S
C734       C1240   1.491       .  S
C735       C2053   1.476       .  S
C736        C920   1.481       .  S
Zn737       O741   1.939       .  S
Zn737       O742   2.005       .  S
Zn737       O746   2.002       .  S
Zn737       O753   2.018       .  S
Zn738       O741   1.951       .  S
Zn738       O743   2.007       .  S
Zn738       O745   2.019       .  S
Zn738       O749   2.005       .  S
Zn739       O741   1.947       .  S
Zn739       O744   2.007       .  S
Zn739       O747   2.037       .  S
Zn739       O750   2.014       .  S
Zn740       O741   1.952       .  S
Zn740       O748   2.031       .  S
Zn740       O751   1.989       .  S
Zn740       O752   2.031       .  S
O742        C754   1.272       .  A
O743        C755   1.272       .  A
O744        C756   1.274       .  A
O745        C754   1.274       .  A
O746        C756   1.274       .  A
O747        C755   1.275       .  A
O748        C757   1.276       .  A
O749        C758   1.273       .  A
O750        C757   1.274       .  A
O751        C758   1.272       .  A
O752        C759   1.275       .  A
O753        C759   1.274       .  A
C754        C880   1.482       .  S
C755        C893   1.484       .  S
C756       C2380   1.473       .  S
C757       C1013   1.489       .  S
C758       C1180   1.481       .  S
C759        C913   1.493       .  S
Zn760       O764   1.955       .  S
Zn760       O765   2.010       .  S
Zn760       O769   2.011       .  S
Zn760       O776   2.030       .  S
Zn761       O764   1.968       .  S
Zn761       O766   2.046       .  S
Zn761       O768   2.037       .  S
Zn761       O772   2.049       .  S
Zn762       O764   1.963       .  S
Zn762       O767   2.034       .  S
Zn762       O770   2.003       .  S
Zn762       O773   2.020       .  S
Zn763       O764   1.952       .  S
Zn763       O771   2.026       .  S
Zn763       O774   2.026       .  S
Zn763       O775   2.026       .  S
O765        C777   1.274       .  A
O766        C778   1.277       .  A
O767        C779   1.275       .  A
O768        C777   1.277       .  A
O769        C779   1.272       .  A
O770        C778   1.272       .  A
O771        C780   1.275       .  A
O772        C781   1.278       .  A
O773        C780   1.275       .  A
O774        C781   1.275       .  A
O775        C782   1.276       .  A
O776        C782   1.276       .  A
C777       C1060   1.488       .  S
C778        C900   1.485       .  S
C779       C1300   1.481       .  S
C780        C973   1.488       .  S
C781       C1313   1.495       .  S
C782        C853   1.487   1_556  S
Zn783       O787   1.966       .  S
Zn783       O788   2.029       .  S
Zn783       O792   2.057       .  S
Zn783       O799   2.007       .  S
Zn784       O787   1.929       .  S
Zn784       O789   2.019       .  S
Zn784       O791   1.979       .  S
Zn784       O795   1.993       .  S
Zn785       O787   1.934       .  S
Zn785       O790   1.968       .  S
Zn785       O793   2.004       .  S
Zn785       O796   2.003       .  S
Zn786       O787   1.948       .  S
Zn786       O794   1.990       .  S
Zn786       O797   2.016       .  S
Zn786       O798   2.005       .  S
O788        C800   1.275       .  A
O789        C801   1.273       .  A
O790        C802   1.268       .  A
O791        C800   1.271       .  A
O792        C802   1.277       .  A
O793        C801   1.272       .  A
O794        C803   1.271       .  A
O795        C804   1.271       .  A
O796        C803   1.271       .  A
O797        C804   1.273       .  A
O798        C805   1.272       .  A
O799        C805   1.274       .  A
C800       C2273   1.484   1_545  S
C801        C873   1.482       .  S
C802        C833   1.490       .  S
C803       C1340   1.474       .  S
C804        C953   1.484       .  S
C805       C1460   1.472       .  S
Zn806       O810   1.957       .  S
Zn806       O811   2.024       .  S
Zn806       O815   2.046       .  S
Zn806       O822   2.049       .  S
Zn807       O810   1.945       .  S
Zn807       O812   2.041       .  S
Zn807       O814   2.020       .  S
Zn807       O818   2.014       .  S
Zn808       O810   1.916       .  S
Zn808       O813   1.981       .  S
Zn808       O816   1.988       .  S
Zn808       O819   1.983       .  S
Zn809       O810   1.934       .  S
Zn809       O817   2.020       .  S
Zn809       O820   2.015       .  S
Zn809       O821   2.000       .  S
O811        C823   1.277       .  A
O812        C824   1.276       .  A
O813        C825   1.271       .  A
O814        C823   1.277       .  A
O815        C825   1.277       .  A
O816        C824   1.269       .  A
O817        C826   1.274       .  A
O818        C827   1.274       .  A
O819        C826   1.270       .  A
O820        C827   1.274       .  A
O821        C828   1.273       .  A
O822        C828   1.277       .  A
C823       C1153   1.486       .  S
C824        C840   1.491       .  S
C825       C1560   1.471       .  S
C826       C1400   1.475       .  S
C827        C940   1.485       .  S
C828        C860   1.482       .  S
C829        C830   1.398       .  A
C829        C834   1.390       .  A
C829        F847   1.359       .  S
C830        C835   1.479       .  S
C830        C831   1.407       .  A
C831        C832   1.406       .  A
C831        F836   1.358       .  S
C832        C833   1.412       .  A
C832        F848   1.358       .  S
C833        C834   1.415       .  A
C834        F837   1.358       .  S
C835        C838   1.405       .  A
C835        C842   1.400       .  A
C838        C839   1.398       .  A
C838        F843   1.358       .  S
C839        C840   1.410       .  A
C839        F845   1.358       .  S
C840        C841   1.417       .  A
C841        C842   1.399       .  A
C841        F844   1.358       .  S
C842        F846   1.358       .  S
C849        C850   1.405       .  A
C849        C854   1.400       .  A
C849        F867   1.358       .  S
C850        C855   1.484       .  S
C850        C851   1.404       .  A
C851        C852   1.402       .  A
C851        F856   1.358       .  S
C852        C853   1.410       .  A
C852        F868   1.358   1_554  S
C853        C854   1.410       .  A
C854        F857   1.358       .  S
C855        C858   1.407       .  A
C855        C862   1.404       .  A
C858        C859   1.406       .  A
C858        F863   1.357       .  S
C859        C860   1.409       .  A
C859        F865   1.358       .  S
C860        C861   1.408       .  A
C861        C862   1.395       .  A
C861        F864   1.358       .  S
C862        F866   1.358       .  S
C869        C870   1.403   1_545  A
C869        C874   1.396       .  A
C869        F887   1.358       .  S
C870        C875   1.480       .  S
C870        C871   1.406       .  A
C871        C872   1.400       .  A
C871        F876   1.358       .  S
C872        C873   1.409   1_565  A
C872        F888   1.358       .  S
C873        C874   1.409       .  A
C874        F877   1.358       .  S
C875        C878   1.405       .  A
C875        C882   1.404       .  A
C878        C879   1.397       .  A
C878        F883   1.358   1_565  S
C879        C880   1.409       .  A
C879        F885   1.358       .  S
C880        C881   1.410       .  A
C881        C882   1.398       .  A
C881        F884   1.358       .  S
C882        F886   1.358       .  S
C889        C890   1.410       .  A
C889        C894   1.401       .  A
C889        F907   1.358       .  S
C890        C895   1.491   1_565  S
C890        C891   1.407   1_565  A
C891        C892   1.400   1_545  A
C891        F896   1.358       .  S
C892        C893   1.409       .  A
C892        F908   1.358       .  S
C893        C894   1.407       .  A
C894        F897   1.358       .  S
C895        C898   1.406       .  A
C895        C902   1.410       .  A
C898        C899   1.399       .  A
C898        F903   1.358   1_545  S
C899        C900   1.410       .  A
C899        F905   1.358       .  S
C900        C901   1.407       .  A
C901        C902   1.402       .  A
C901        F904   1.358       .  S
C902        F906   1.358       .  S
C909        C910   1.402       .  A
C909        C914   1.400       .  A
C909        F927   1.358       .  S
C910        C915   1.481       .  S
C910        C911   1.403       .  A
C911        C912   1.402       .  A
C911        F916   1.358       .  S
C912        C913   1.413       .  A
C912        F928   1.358       .  S
C913        C914   1.413       .  A
C914        F917   1.358       .  S
C915        C918   1.402       .  A
C915        C922   1.406       .  A
C918        C919   1.396       .  A
C918        F923   1.358       .  S
C919        C920   1.408       .  A
C919        F925   1.358       .  S
C920        C921   1.408       .  A
C921        C922   1.405       .  A
C921        F924   1.358       .  S
C922        F926   1.357       .  S
C929        C930   1.405       .  A
C929        C934   1.398       .  A
C929        F947   1.358       .  S
C930        C935   1.485   1_565  S
C930        C931   1.405       .  A
C931        C932   1.399       .  A
C931        F936   1.358       .  S
C932        C933   1.412       .  A
C932        F948   1.358       .  S
C933        C934   1.411       .  A
C934        F937   1.358       .  S
C935        C938   1.406       .  A
C935        C942   1.406       .  A
C938        C939   1.398       .  A
C938        F943   1.358       .  S
C939        C940   1.410       .  A
C939        F945   1.358       .  S
C940        C941   1.410       .  A
C941        C942   1.399       .  A
C941        F944   1.358       .  S
C942        F946   1.358       .  S
C949        C950   1.404       .  A
C949        C954   1.394       .  A
C949        F967   1.358       .  S
C950        C955   1.478       .  S
C950        C951   1.404   1_565  A
C951        C952   1.398       .  A
C951        F956   1.358       .  S
C952        C953   1.411       .  A
C952        F968   1.358       .  S
C953        C954   1.412   1_545  A
C954        F957   1.358       .  S
C955        C958   1.405   1_565  A
C955        C962   1.403       .  A
C958        C959   1.396       .  A
C958        F963   1.358       .  S
C959        C960   1.410   1_545  A
C959        F965   1.358       .  S
C960        C961   1.413       .  A
C961        C962   1.396       .  A
C961        F964   1.358       .  S
C962        F966   1.358       .  S
C969        C970   1.404       .  A
C969        C974   1.400       .  A
C969        F987   1.358       .  S
C970        C975   1.483       .  S
C970        C971   1.405       .  A
C971        C972   1.399       .  A
C971        F976   1.358   1_545  S
C972        C973   1.411       .  A
C972        F988   1.358       .  S
C973        C974   1.411       .  A
C974        F977   1.357       .  S
C975        C978   1.408       .  A
C975        C982   1.403   1_545  A
C978        C979   1.403       .  A
C978        F983   1.358       .  S
C979        C980   1.407   1_545  A
C979        F985   1.358       .  S
C980        C981   1.409       .  A
C981        C982   1.395       .  A
C981        F984   1.359       .  S
C982        F986   1.358       .  S
C989        C990   1.402       .  A
C989        C994   1.394       .  A
C989       F1007   1.359       .  S
C990        C995   1.484       .  S
C990        C991   1.408       .  A
C991        C992   1.402       .  A
C991        F996   1.358       .  S
C992        C993   1.409       .  A
C992       F1008   1.357       .  S
C993        C994   1.415       .  A
C994        F997   1.358   1_554  S
C995        C998   1.407       .  A
C995       C1002   1.404       .  A
C998        C999   1.397       .  A
C998       F1003   1.358       .  S
C999       C1000   1.409       .  A
C999       F1005   1.358       .  S
C1000      C1001   1.413       .  A
C1001      C1002   1.398       .  A
C1001      F1004   1.358       .  S
C1002      F1006   1.358       .  S
C1009      C1010   1.407       .  A
C1009      C1014   1.405       .  A
C1009      F1027   1.358       .  S
C1010      C1015   1.488       .  S
C1010      C1011   1.405       .  A
C1011      C1012   1.395       .  A
C1011      F1016   1.358       .  S
C1012      C1013   1.410       .  A
C1012      F1028   1.358       .  S
C1013      C1014   1.411       .  A
C1014      F1017   1.358       .  S
C1015      C1018   1.409       .  A
C1015      C1022   1.406       .  A
C1018      C1019   1.405       .  A
C1018      F1023   1.358       .  S
C1019      C1020   1.406       .  A
C1019      F1025   1.357       .  S
C1020      C1021   1.405       .  A
C1021      C1022   1.398       .  A
C1021      F1024   1.358       .  S
C1022      F1026   1.358       .  S
C1029      C1030   1.401       .  A
C1029      C1034   1.396       .  A
C1029      F1047   1.358       .  S
C1030      C1035   1.482       .  S
C1030      C1031   1.406       .  A
C1031      C1032   1.403       .  A
C1031      F1036   1.358       .  S
C1032      C1033   1.411       .  A
C1032      F1048   1.357       .  S
C1033      C1034   1.416       .  A
C1034      F1037   1.358       .  S
C1035      C1038   1.402       .  A
C1035      C1042   1.405       .  A
C1038      C1039   1.398       .  A
C1038      F1043   1.358       .  S
C1039      C1040   1.415       .  A
C1039      F1045   1.358       .  S
C1040      C1041   1.411       .  A
C1041      C1042   1.400       .  A
C1041      F1044   1.358       .  S
C1042      F1046   1.358       .  S
C1049      C1050   1.402       .  A
C1049      C1054   1.395       .  A
C1049      F1067   1.358       .  S
C1050      C1055   1.484       .  S
C1050      C1051   1.406       .  A
C1051      C1052   1.406       .  A
C1051      F1056   1.358       .  S
C1052      C1053   1.412       .  A
C1052      F1068   1.358       .  S
C1053      C1054   1.412       .  A
C1054      F1057   1.358       .  S
C1055      C1058   1.403       .  A
C1055      C1062   1.406       .  A
C1058      C1059   1.400       .  A
C1058      F1063   1.358       .  S
C1059      C1060   1.413       .  A
C1059      F1065   1.358       .  S
C1060      C1061   1.409       .  A
C1061      C1062   1.400       .  A
C1061      F1064   1.358       .  S
C1062      F1066   1.358       .  S
C1069      C1070   1.403       .  A
C1069      C1074   1.393       .  A
C1069      F1087   1.358       .  S
C1070      C1075   1.476   1_545  S
C1070      C1071   1.404       .  A
C1071      C1072   1.399       .  A
C1071      F1076   1.358       .  S
C1072      C1073   1.411       .  A
C1072      F1088   1.358       .  S
C1073      C1074   1.409       .  A
C1074      F1077   1.358       .  S
C1075      C1078   1.406       .  A
C1075      C1082   1.403       .  A
C1078      C1079   1.400       .  A
C1078      F1083   1.358       .  S
C1079      C1080   1.406       .  A
C1079      F1085   1.358       .  S
C1080      C1081   1.407       .  A
C1081      C1082   1.393       .  A
C1081      F1084   1.358       .  S
C1082      F1086   1.358       .  S
C1089      C1090   1.404   1_545  A
C1089      C1094   1.404   1_545  A
C1089      F1107   1.357       .  S
C1090      C1095   1.480   1_565  S
C1090      C1091   1.402       .  A
C1091      C1092   1.399       .  A
C1091      F1096   1.358       .  S
C1092      C1093   1.412       .  A
C1092      F1108   1.358       .  S
C1093      C1094   1.411       .  A
C1094      F1097   1.357       .  S
C1095      C1098   1.406   1_545  A
C1095      C1102   1.403       .  A
C1098      C1099   1.404   1_565  A
C1098      F1103   1.357       .  S
C1099      C1100   1.408       .  A
C1099      F1105   1.358   1_545  S
C1100      C1101   1.408       .  A
C1101      C1102   1.398       .  A
C1101      F1104   1.358       .  S
C1102      F1106   1.358       .  S
C1109      C1110   1.407       .  A
C1109      C1114   1.404       .  A
C1109      F1127   1.358       .  S
C1110      C1115   1.488       .  S
C1110      C1111   1.403       .  A
C1111      C1112   1.398       .  A
C1111      F1116   1.358       .  S
C1112      C1113   1.415       .  A
C1112      F1128   1.358       .  S
C1113      C1114   1.412       .  A
C1114      F1117   1.357       .  S
C1115      C1118   1.406       .  A
C1115      C1122   1.404       .  A
C1118      C1119   1.401       .  A
C1118      F1123   1.358       .  S
C1119      C1120   1.411       .  A
C1119      F1125   1.358       .  S
C1120      C1121   1.415       .  A
C1121      C1122   1.400       .  A
C1121      F1124   1.358       .  S
C1122      F1126   1.358       .  S
C1129      C1130   1.403       .  A
C1129      C1134   1.396       .  A
C1129      F1147   1.358       .  S
C1130      C1135   1.484       .  S
C1130      C1131   1.406       .  A
C1131      C1132   1.402       .  A
C1131      F1136   1.358       .  S
C1132      C1133   1.412       .  A
C1132      F1148   1.358       .  S
C1133      C1134   1.413       .  A
C1134      F1137   1.358       .  S
C1135      C1138   1.404       .  A
C1135      C1142   1.404       .  A
C1138      C1139   1.401       .  A
C1138      F1143   1.358       .  S
C1139      C1140   1.414       .  A
C1139      F1145   1.358       .  S
C1140      C1141   1.413       .  A
C1141      C1142   1.398       .  A
C1141      F1144   1.358       .  S
C1142      F1146   1.358       .  S
C1149      C1150   1.404       .  A
C1149      C1154   1.400       .  A
C1149      F1167   1.358       .  S
C1150      C1155   1.479       .  S
C1150      C1151   1.403       .  A
C1151      C1152   1.396       .  A
C1151      F1156   1.358       .  S
C1152      C1153   1.410       .  A
C1152      F1168   1.358       .  S
C1153      C1154   1.412       .  A
C1154      F1157   1.358       .  S
C1155      C1158   1.404       .  A
C1155      C1162   1.402       .  A
C1158      C1159   1.399       .  A
C1158      F1163   1.358       .  S
C1159      C1160   1.412       .  A
C1159      F1165   1.358       .  S
C1160      C1161   1.413       .  A
C1161      C1162   1.396       .  A
C1161      F1164   1.358       .  S
C1162      F1166   1.358       .  S
C1169      C1170   1.403       .  A
C1169      C1174   1.396       .  A
C1169      F1187   1.358       .  S
C1170      C1175   1.466   1_545  S
C1170      C1171   1.402       .  A
C1171      C1172   1.394       .  A
C1171      F1176   1.358   1_545  S
C1172      C1173   1.404       .  A
C1172      F1188   1.358       .  S
C1173      C1174   1.403       .  A
C1174      F1177   1.358       .  S
C1175      C1178   1.401   1_565  A
C1175      C1182   1.398       .  A
C1178      C1179   1.396   1_545  A
C1178      F1183   1.358       .  S
C1179      C1180   1.412       .  A
C1179      F1185   1.358       .  S
C1180      C1181   1.413       .  A
C1181      C1182   1.393       .  A
C1181      F1184   1.358       .  S
C1182      F1186   1.358       .  S
C1189      C1190   1.404       .  A
C1189      C1194   1.398       .  A
C1189      F1207   1.358       .  S
C1190      C1195   1.482       .  S
C1190      C1191   1.404       .  A
C1191      C1192   1.398       .  A
C1191      F1196   1.358   1_545  S
C1192      C1193   1.411       .  A
C1192      F1208   1.358       .  S
C1193      C1194   1.411       .  A
C1194      F1197   1.358       .  S
C1195      C1198   1.403       .  A
C1195      C1202   1.405   1_545  A
C1198      C1199   1.396       .  A
C1198      F1203   1.358       .  S
C1199      C1200   1.414   1_545  A
C1199      F1205   1.358       .  S
C1200      C1201   1.412       .  A
C1201      C1202   1.401       .  A
C1201      F1204   1.357       .  S
C1202      F1206   1.358       .  S
C1209      C1210   1.406       .  A
C1209      C1214   1.399       .  A
C1209      F1227   1.358       .  S
C1210      C1215   1.485       .  S
C1210      C1211   1.404       .  A
C1211      C1212   1.400       .  A
C1211      F1216   1.358       .  S
C1212      C1213   1.413   1_556  A
C1212      F1228   1.358   1_556  S
C1213      C1214   1.410   1_554  A
C1214      F1217   1.358       .  S
C1215      C1218   1.404       .  A
C1215      C1222   1.406       .  A
C1218      C1219   1.395       .  A
C1218      F1223   1.358       .  S
C1219      C1220   1.412       .  A
C1219      F1225   1.358       .  S
C1220      C1221   1.412       .  A
C1221      C1222   1.403       .  A
C1221      F1224   1.358       .  S
C1222      F1226   1.358       .  S
C1229      C1230   1.404       .  A
C1229      C1234   1.397       .  A
C1229      F1247   1.358       .  S
C1230      C1235   1.484       .  S
C1230      C1231   1.405       .  A
C1231      C1232   1.400       .  A
C1231      F1236   1.358       .  S
C1232      C1233   1.412       .  A
C1232      F1248   1.358       .  S
C1233      C1234   1.412       .  A
C1234      F1237   1.358       .  S
C1235      C1238   1.404       .  A
C1235      C1242   1.404       .  A
C1238      C1239   1.398       .  A
C1238      F1243   1.358       .  S
C1239      C1240   1.412       .  A
C1239      F1245   1.358       .  S
C1240      C1241   1.413       .  A
C1241      C1242   1.400       .  A
C1241      F1244   1.358       .  S
C1242      F1246   1.358       .  S
C1249      C1250   1.410       .  A
C1249      C1254   1.400       .  A
C1249      F1267   1.358       .  S
C1250      C1255   1.484   1_545  S
C1250      C1251   1.405       .  A
C1251      C1252   1.396       .  A
C1251      F1256   1.358   1_545  S
C1252      C1253   1.408       .  A
C1252      F1268   1.358       .  S
C1253      C1254   1.405       .  A
C1254      F1257   1.358       .  S
C1255      C1258   1.409       .  A
C1255      C1262   1.403   1_565  A
C1258      C1259   1.400       .  A
C1258      F1263   1.358       .  S
C1259      C1260   1.406       .  A
C1259      F1265   1.358       .  S
C1260      C1261   1.412       .  A
C1261      C1262   1.396   1_565  A
C1261      F1264   1.358       .  S
C1262      F1266   1.358       .  S
C1269      C1270   1.403       .  A
C1269      C1274   1.398       .  A
C1269      F1287   1.358   1_565  S
C1270      C1275   1.481       .  S
C1270      C1271   1.404       .  A
C1271      C1272   1.399       .  A
C1271      F1276   1.358       .  S
C1272      C1273   1.413       .  A
C1272      F1288   1.358       .  S
C1273      C1274   1.413       .  A
C1274      F1277   1.357       .  S
C1275      C1278   1.404       .  A
C1275      C1282   1.403       .  A
C1278      C1279   1.399   1_565  A
C1278      F1283   1.358       .  S
C1279      C1280   1.412       .  A
C1279      F1285   1.358       .  S
C1280      C1281   1.414   1_545  A
C1281      C1282   1.398       .  A
C1281      F1284   1.358       .  S
C1282      F1286   1.358       .  S
C1289      C1290   1.404   1_545  A
C1289      C1294   1.400   1_545  A
C1289      F1307   1.358       .  S
C1290      C1295   1.481   1_564  S
C1290      C1291   1.404       .  A
C1291      C1292   1.400       .  A
C1291      F1296   1.358   1_554  S
C1292      C1293   1.409       .  A
C1292      F1308   1.358       .  S
C1293      C1294   1.411       .  A
C1294      F1297   1.358       .  S
C1295      C1298   1.403       .  A
C1295      C1302   1.406   1_556  A
C1298      C1299   1.399       .  A
C1298      F1303   1.358       .  S
C1299      C1300   1.409       .  A
C1299      F1305   1.358       .  S
C1300      C1301   1.407       .  A
C1301      C1302   1.402   1_556  A
C1301      F1304   1.357       .  S
C1302      F1306   1.358   1_545  S
C1309      C1310   1.403       .  A
C1309      C1314   1.401       .  A
C1309      F1327   1.358       .  S
C1310      C1315   1.486       .  S
C1310      C1311   1.405       .  A
C1311      C1312   1.405       .  A
C1311      F1316   1.358       .  S
C1312      C1313   1.412       .  A
C1312      F1328   1.358       .  S
C1313      C1314   1.412       .  A
C1314      F1317   1.358       .  S
C1315      C1318   1.408       .  A
C1315      C1322   1.403       .  A
C1318      C1319   1.407       .  A
C1318      F1323   1.357       .  S
C1319      C1320   1.407       .  A
C1319      F1325   1.357       .  S
C1320      C1321   1.410       .  A
C1321      C1322   1.399       .  A
C1321      F1324   1.359       .  S
C1322      F1326   1.358       .  S
C1329      C1330   1.404       .  A
C1329      C1334   1.398       .  A
C1329      F1347   1.358       .  S
C1330      C1335   1.472       .  S
C1330      C1331   1.401       .  A
C1331      C1332   1.390       .  A
C1331      F1336   1.358       .  S
C1332      C1333   1.411       .  A
C1332      F1348   1.358       .  S
C1333      C1334   1.411       .  A
C1334      F1337   1.358       .  S
C1335      C1338   1.404       .  A
C1335      C1342   1.402       .  A
C1338      C1339   1.398       .  A
C1338      F1343   1.358       .  S
C1339      C1340   1.409       .  A
C1339      F1345   1.358       .  S
C1340      C1341   1.407       .  A
C1341      C1342   1.391       .  A
C1341      F1344   1.358       .  S
C1342      F1346   1.358       .  S
C1349      C1350   1.401       .  A
C1349      C1354   1.396       .  A
C1349      F1367   1.359       .  S
C1350      C1355   1.480       .  S
C1350      C1351   1.405       .  A
C1351      C1352   1.405       .  A
C1351      F1356   1.357       .  S
C1352      C1353   1.409       .  A
C1352      F1368   1.357       .  S
C1353      C1354   1.412       .  A
C1354      F1357   1.358       .  S
C1355      C1358   1.405       .  A
C1355      C1362   1.402   1_554  A
C1358      C1359   1.403       .  A
C1358      F1363   1.357       .  S
C1359      C1360   1.409   1_554  A
C1359      F1365   1.358   1_545  S
C1360      C1361   1.410       .  A
C1361      C1362   1.397       .  A
C1361      F1364   1.358       .  S
C1362      F1366   1.358       .  S
C1369      C1370   1.405       .  A
C1369      C1374   1.402       .  A
C1369      F1387   1.358       .  S
C1370      C1375   1.480       .  S
C1370      C1371   1.402       .  A
C1371      C1372   1.394       .  A
C1371      F1376   1.358       .  S
C1372      C1373   1.412       .  A
C1372      F1388   1.358       .  S
C1373      C1374   1.411       .  A
C1374      F1377   1.358       .  S
C1375      C1378   1.404       .  A
C1375      C1382   1.403       .  A
C1378      C1379   1.399       .  A
C1378      F1383   1.358       .  S
C1379      C1380   1.412       .  A
C1379      F1385   1.358       .  S
C1380      C1381   1.413       .  A
C1381      C1382   1.397       .  A
C1381      F1384   1.358       .  S
C1382      F1386   1.358       .  S
C1389      C1390   1.400       .  A
C1389      C1394   1.393       .  A
C1389      F1407   1.358       .  S
C1390      C1395   1.475       .  S
C1390      C1391   1.405       .  A
C1391      C1392   1.401       .  A
C1391      F1396   1.358       .  S
C1392      C1393   1.410       .  A
C1392      F1408   1.358       .  S
C1393      C1394   1.413       .  A
C1394      F1397   1.358       .  S
C1395      C1398   1.402       .  A
C1395      C1402   1.405       .  A
C1398      C1399   1.396       .  A
C1398      F1403   1.358       .  S
C1399      C1400   1.410       .  A
C1399      F1405   1.358       .  S
C1400      C1401   1.406       .  A
C1401      C1402   1.396       .  A
C1401      F1404   1.358       .  S
C1402      F1406   1.358       .  S
C1409      C1410   1.403       .  A
C1409      C1414   1.398       .  A
C1409      F1427   1.358       .  S
C1410      C1415   1.474       .  S
C1410      C1411   1.403       .  A
C1411      C1412   1.399       .  A
C1411      F1416   1.358       .  S
C1412      C1413   1.408       .  A
C1412      F1428   1.358       .  S
C1413      C1414   1.408       .  A
C1414      F1417   1.358       .  S
C1415      C1418   1.400       .  A
C1415      C1422   1.402       .  A
C1418      C1419   1.397       .  A
C1418      F1423   1.358       .  S
C1419      C1420   1.415       .  A
C1419      F1425   1.358       .  S
C1420      C1421   1.410       .  A
C1421      C1422   1.398       .  A
C1421      F1424   1.358       .  S
C1422      F1426   1.358       .  S
C1429      C1430   1.401       .  A
C1429      C1434   1.393       .  A
C1429      F1447   1.358       .  S
C1430      C1435   1.477       .  S
C1430      C1431   1.406       .  A
C1431      C1432   1.405       .  A
C1431      F1436   1.357       .  S
C1432      C1433   1.408       .  A
C1432      F1448   1.357       .  S
C1433      C1434   1.408       .  A
C1434      F1437   1.359       .  S
C1435      C1438   1.403       .  A
C1435      C1442   1.402       .  A
C1438      C1439   1.400       .  A
C1438      F1443   1.358       .  S
C1439      C1440   1.411       .  A
C1439      F1445   1.358       .  S
C1440      C1441   1.411       .  A
C1441      C1442   1.399       .  A
C1441      F1444   1.358       .  S
C1442      F1446   1.358       .  S
C1449      C1450   1.401       .  A
C1449      C1454   1.400       .  A
C1449      F1467   1.357       .  S
C1450      C1455   1.469       .  S
C1450      C1451   1.402       .  A
C1451      C1452   1.395       .  A
C1451      F1456   1.358       .  S
C1452      C1453   1.408       .  A
C1452      F1468   1.358       .  S
C1453      C1454   1.410       .  A
C1454      F1457   1.358       .  S
C1455      C1458   1.402       .  A
C1455      C1462   1.402       .  A
C1458      C1459   1.397       .  A
C1458      F1463   1.358       .  S
C1459      C1460   1.407       .  A
C1459      F1465   1.358       .  S
C1460      C1461   1.408       .  A
C1461      C1462   1.396       .  A
C1461      F1464   1.358       .  S
C1462      F1466   1.358       .  S
C1469      C1470   1.408       .  A
C1469      C1474   1.402       .  A
C1469      F1487   1.358       .  S
C1470      C1475   1.485       .  S
C1470      C1471   1.405       .  A
C1471      C1472   1.397       .  A
C1471      F1476   1.358       .  S
C1472      C1473   1.410       .  A
C1472      F1488   1.359       .  S
C1473      C1474   1.406       .  A
C1474      F1477   1.358       .  S
C1475      C1478   1.405       .  A
C1475      C1482   1.406       .  A
C1478      C1479   1.399       .  A
C1478      F1483   1.358       .  S
C1479      C1480   1.411       .  A
C1479      F1485   1.358       .  S
C1480      C1481   1.409       .  A
C1481      C1482   1.400       .  A
C1481      F1484   1.358       .  S
C1482      F1486   1.358       .  S
C1489      C1490   1.405       .  A
C1489      C1494   1.409       .  A
C1489      F1507   1.357       .  S
C1490      C1495   1.486       .  S
C1490      C1491   1.401       .  A
C1491      C1492   1.399       .  A
C1491      F1496   1.358       .  S
C1492      C1493   1.415       .  A
C1492      F1508   1.358       .  S
C1493      C1494   1.414       .  A
C1494      F1497   1.357   1_556  S
C1495      C1498   1.407       .  A
C1495      C1502   1.404       .  A
C1498      C1499   1.406       .  A
C1498      F1503   1.358       .  S
C1499      C1500   1.407       .  A
C1499      F1505   1.358       .  S
C1500      C1501   1.407       .  A
C1501      C1502   1.402       .  A
C1501      F1504   1.358       .  S
C1502      F1506   1.358       .  S
C1509      C1510   1.405       .  A
C1509      C1514   1.400       .  A
C1509      F1527   1.358       .  S
C1510      C1515   1.487       .  S
C1510      C1511   1.407       .  A
C1511      C1512   1.398       .  A
C1511      F1516   1.358       .  S
C1512      C1513   1.409       .  A
C1512      F1528   1.358       .  S
C1513      C1514   1.414       .  A
C1514      F1517   1.358       .  S
C1515      C1518   1.405       .  A
C1515      C1522   1.407       .  A
C1518      C1519   1.397       .  A
C1518      F1523   1.358       .  S
C1519      C1520   1.411       .  A
C1519      F1525   1.358       .  S
C1520      C1521   1.412       .  A
C1521      C1522   1.402       .  A
C1521      F1524   1.358       .  S
C1522      F1526   1.358       .  S
C1529      C1530   1.401       .  A
C1529      C1534   1.396       .  A
C1529      F1547   1.358       .  S
C1530      C1535   1.481       .  S
C1530      C1531   1.404       .  A
C1531      C1532   1.407       .  A
C1531      F1536   1.357       .  S
C1532      C1533   1.413       .  A
C1532      F1548   1.357       .  S
C1533      C1534   1.413       .  A
C1534      F1537   1.358       .  S
C1535      C1538   1.402       .  A
C1535      C1542   1.406       .  A
C1538      C1539   1.397       .  A
C1538      F1543   1.358       .  S
C1539      C1540   1.412       .  A
C1539      F1545   1.359       .  S
C1540      C1541   1.409       .  A
C1541      C1542   1.406       .  A
C1541      F1544   1.357       .  S
C1542      F1546   1.357       .  S
C1549      C1550   1.403       .  A
C1549      C1554   1.397       .  A
C1549      F1567   1.358       .  S
C1550      C1555   1.480       .  S
C1550      C1551   1.405       .  A
C1551      C1552   1.398       .  A
C1551      F1556   1.358       .  S
C1552      C1553   1.412       .  A
C1552      F1568   1.358       .  S
C1553      C1554   1.413       .  A
C1554      F1557   1.357       .  S
C1555      C1558   1.406       .  A
C1555      C1562   1.407       .  A
C1558      C1559   1.394       .  A
C1558      F1563   1.358       .  S
C1559      C1560   1.404       .  A
C1559      F1565   1.358       .  S
C1560      C1561   1.406       .  A
C1561      C1562   1.402       .  A
C1561      F1564   1.358       .  S
C1562      F1566   1.358       .  S
C1569      C1570   1.405       .  A
C1569      C1574   1.399       .  A
C1569      F1587   1.358       .  S
C1570      C1575   1.486       .  S
C1570      C1571   1.405       .  A
C1571      C1572   1.400       .  A
C1571      F1576   1.358       .  S
C1572      C1573   1.413       .  A
C1572      F1588   1.358       .  S
C1573      C1574   1.412       .  A
C1574      F1577   1.358       .  S
C1575      C1578   1.407       .  A
C1575      C1582   1.403       .  A
C1578      C1579   1.402       .  A
C1578      F1583   1.358       .  S
C1579      C1580   1.412       .  A
C1579      F1585   1.358       .  S
C1580      C1581   1.413       .  A
C1581      C1582   1.396       .  A
C1581      F1584   1.358       .  S
C1582      F1586   1.358       .  S
C1589      C1590   1.404       .  A
C1589      C1594   1.400       .  A
C1589      F1607   1.358       .  S
C1590      C1595   1.480       .  S
C1590      C1591   1.402       .  A
C1591      C1592   1.398       .  A
C1591      F1596   1.358       .  S
C1592      C1593   1.414       .  A
C1592      F1608   1.357       .  S
C1593      C1594   1.413       .  A
C1594      F1597   1.358       .  S
C1595      C1598   1.404       .  A
C1595      C1602   1.402       .  A
C1598      C1599   1.400       .  A
C1598      F1603   1.358       .  S
C1599      C1600   1.413       .  A
C1599      F1605   1.358       .  S
C1600      C1601   1.413       .  A
C1601      C1602   1.398       .  A
C1601      F1604   1.358       .  S
C1602      F1606   1.358       .  S
C1609      C1610   1.402       .  A
C1609      C1614   1.396       .  A
C1609      F1627   1.358       .  S
C1610      C1615   1.475       .  S
C1610      C1611   1.402       .  A
C1611      C1612   1.398       .  A
C1611      F1616   1.358       .  S
C1612      C1613   1.413       .  A
C1612      F1628   1.358       .  S
C1613      C1614   1.411       .  A
C1614      F1617   1.358       .  S
C1615      C1618   1.403       .  A
C1615      C1622   1.401       .  A
C1618      C1619   1.399       .  A
C1618      F1623   1.358       .  S
C1619      C1620   1.411       .  A
C1619      F1625   1.358       .  S
C1620      C1621   1.413       .  A
C1621      C1622   1.394       .  A
C1621      F1624   1.358       .  S
C1622      F1626   1.358       .  S
C1629      C1630   1.406       .  A
C1629      C1634   1.398       .  A
C1629      F1647   1.358       .  S
C1630      C1635   1.484   1_556  S
C1630      C1631   1.404       .  A
C1631      C1632   1.400       .  A
C1631      F1636   1.358   1_556  S
C1632      C1633   1.414       .  A
C1632      F1648   1.358       .  S
C1633      C1634   1.410       .  A
C1634      F1637   1.358       .  S
C1635      C1638   1.408   1_554  A
C1635      C1642   1.403       .  A
C1638      C1639   1.404   1_556  A
C1638      F1643   1.358       .  S
C1639      C1640   1.410       .  A
C1639      F1645   1.358       .  S
C1640      C1641   1.411       .  A
C1641      C1642   1.394       .  A
C1641      F1644   1.358       .  S
C1642      F1646   1.358       .  S
C1649      C1650   1.401       .  A
C1649      C1654   1.397       .  A
C1649      F1667   1.358       .  S
C1650      C1655   1.470       .  S
C1650      C1651   1.399       .  A
C1651      C1652   1.396       .  A
C1651      F1656   1.358       .  S
C1652      C1653   1.413       .  A
C1652      F1668   1.358       .  S
C1653      C1654   1.413       .  A
C1654      F1657   1.358       .  S
C1655      C1658   1.400       .  A
C1655      C1662   1.401       .  A
C1658      C1659   1.398       .  A
C1658      F1663   1.358       .  S
C1659      C1660   1.411       .  A
C1659      F1665   1.358       .  S
C1660      C1661   1.412       .  A
C1661      C1662   1.394       .  A
C1661      F1664   1.358       .  S
C1662      F1666   1.358       .  S
C1669      C1670   1.404       .  A
C1669      C1674   1.398       .  A
C1669      F1687   1.358       .  S
C1670      C1675   1.483       .  S
C1670      C1671   1.404       .  A
C1671      C1672   1.403       .  A
C1671      F1676   1.358       .  S
C1672      C1673   1.413       .  A
C1672      F1688   1.358       .  S
C1673      C1674   1.411       .  A
C1674      F1677   1.358       .  S
C1675      C1678   1.404       .  A
C1675      C1682   1.404       .  A
C1678      C1679   1.399       .  A
C1678      F1683   1.358       .  S
C1679      C1680   1.411       .  A
C1679      F1685   1.358       .  S
C1680      C1681   1.412       .  A
C1681      C1682   1.401       .  A
C1681      F1684   1.358       .  S
C1682      F1686   1.358       .  S
C1689      C1690   1.403       .  A
C1689      C1694   1.398       .  A
C1689      F1707   1.358       .  S
C1690      C1695   1.480       .  S
C1690      C1691   1.404       .  A
C1691      C1692   1.400       .  A
C1691      F1696   1.358       .  S
C1692      C1693   1.409       .  A
C1692      F1708   1.357       .  S
C1693      C1694   1.412       .  A
C1694      F1697   1.359       .  S
C1695      C1698   1.402       .  A
C1695      C1702   1.405       .  A
C1698      C1699   1.399       .  A
C1698      F1703   1.358       .  S
C1699      C1700   1.412       .  A
C1699      F1705   1.358       .  S
C1700      C1701   1.409       .  A
C1701      C1702   1.401       .  A
C1701      F1704   1.357       .  S
C1702      F1706   1.358       .  S
C1709      C1710   1.408       .  A
C1709      C1714   1.402       .  A
C1709      F1727   1.358       .  S
C1710      C1715   1.497       .  S
C1710      C1711   1.412       .  A
C1711      C1712   1.405       .  A
C1711      F1716   1.358       .  S
C1712      C1713   1.405       .  A
C1712      F1728   1.358       .  S
C1713      C1714   1.407       .  A
C1714      F1717   1.358       .  S
C1715      C1718   1.410       .  A
C1715      C1722   1.406       .  A
C1718      C1719   1.405       .  A
C1718      F1723   1.358       .  S
C1719      C1720   1.412       .  A
C1719      F1725   1.358       .  S
C1720      C1721   1.414       .  A
C1721      C1722   1.400       .  A
C1721      F1724   1.358       .  S
C1722      F1726   1.358       .  S
C1729      C1730   1.404       .  A
C1729      C1734   1.407       .  A
C1729      F1747   1.357       .  S
C1730      C1735   1.477       .  S
C1730      C1731   1.398       .  A
C1731      C1732   1.392       .  A
C1731      F1736   1.359       .  S
C1732      C1733   1.416       .  A
C1732      F1748   1.358       .  S
C1733      C1734   1.413       .  A
C1734      F1737   1.357       .  S
C1735      C1738   1.402       .  A
C1735      C1742   1.404       .  A
C1738      C1739   1.399       .  A
C1738      F1743   1.358       .  S
C1739      C1740   1.410       .  A
C1739      F1745   1.358       .  S
C1740      C1741   1.408       .  A
C1741      C1742   1.401       .  A
C1741      F1744   1.358       .  S
C1742      F1746   1.358       .  S
C1749      C1750   1.404       .  A
C1749      C1754   1.402       .  A
C1749      F1767   1.358       .  S
C1750      C1755   1.477       .  S
C1750      C1751   1.403       .  A
C1751      C1752   1.397       .  A
C1751      F1756   1.358       .  S
C1752      C1753   1.410       .  A
C1752      F1768   1.358       .  S
C1753      C1754   1.410       .  A
C1754      F1757   1.358       .  S
C1755      C1758   1.406       .  A
C1755      C1762   1.400       .  A
C1758      C1759   1.407       .  A
C1758      F1763   1.357       .  S
C1759      C1760   1.412       .  A
C1759      F1765   1.358       .  S
C1760      C1761   1.412       .  A
C1761      C1762   1.389       .  A
C1761      F1764   1.358       .  S
C1762      F1766   1.359       .  S
C1769      C1770   1.403       .  A
C1769      C1774   1.402       .  A
C1769      F1787   1.358       .  S
C1770      C1775   1.475       .  S
C1770      C1771   1.401       .  A
C1771      C1772   1.395       .  A
C1771      F1776   1.358       .  S
C1772      C1773   1.413       .  A
C1772      F1788   1.358       .  S
C1773      C1774   1.411       .  A
C1774      F1777   1.357       .  S
C1775      C1778   1.406       .  A
C1775      C1782   1.401       .  A
C1778      C1779   1.403       .  A
C1778      F1783   1.358       .  S
C1779      C1780   1.406       .  A
C1779      F1785   1.358       .  S
C1780      C1781   1.407       .  A
C1781      C1782   1.394       .  A
C1781      F1784   1.358       .  S
C1782      F1786   1.358       .  S
C1789      C1790   1.407       .  A
C1789      C1794   1.401       .  A
C1789      F1807   1.358       .  S
C1790      C1795   1.483       .  S
C1790      C1791   1.401       .  A
C1791      C1792   1.398       .  A
C1791      F1796   1.358       .  S
C1792      C1793   1.416       .  A
C1792      F1808   1.358       .  S
C1793      C1794   1.409       .  A
C1794      F1797   1.357       .  S
C1795      C1798   1.405       .  A
C1795      C1802   1.407       .  A
C1798      C1799   1.397       .  A
C1798      F1803   1.358       .  S
C1799      C1800   1.406       .  A
C1799      F1805   1.358       .  S
C1800      C1801   1.407       .  A
C1801      C1802   1.401       .  A
C1801      F1804   1.358       .  S
C1802      F1806   1.358       .  S
C1809      C1810   1.404   1_554  A
C1809      C1814   1.400       .  A
C1809      F1827   1.358       .  S
C1810      C1815   1.484       .  S
C1810      C1811   1.405       .  A
C1811      C1812   1.399       .  A
C1811      F1816   1.358       .  S
C1812      C1813   1.411   1_556  A
C1812      F1828   1.358       .  S
C1813      C1814   1.413       .  A
C1814      F1817   1.358       .  S
C1815      C1818   1.404   1_556  A
C1815      C1822   1.406       .  A
C1818      C1819   1.397   1_554  A
C1818      F1823   1.358       .  S
C1819      C1820   1.412       .  A
C1819      F1825   1.358   1_556  S
C1820      C1821   1.411       .  A
C1821      C1822   1.401       .  A
C1821      F1824   1.358       .  S
C1822      F1826   1.358       .  S
C1829      C1830   1.405       .  A
C1829      C1834   1.397       .  A
C1829      F1847   1.358       .  S
C1830      C1835   1.492       .  S
C1830      C1831   1.407       .  A
C1831      C1832   1.406       .  A
C1831      F1836   1.358       .  S
C1832      C1833   1.415       .  A
C1832      F1848   1.358       .  S
C1833      C1834   1.412       .  A
C1834      F1837   1.358       .  S
C1835      C1838   1.407       .  A
C1835      C1842   1.410       .  A
C1838      C1839   1.397       .  A
C1838      F1843   1.358       .  S
C1839      C1840   1.406       .  A
C1839      F1845   1.358       .  S
C1840      C1841   1.408       .  A
C1841      C1842   1.406       .  A
C1841      F1844   1.358       .  S
C1842      F1846   1.358       .  S
C1849      C1850   1.400       .  A
C1849      C1854   1.399       .  A
C1849      F1867   1.358       .  S
C1850      C1855   1.480       .  S
C1850      C1851   1.403       .  A
C1851      C1852   1.404       .  A
C1851      F1856   1.358       .  S
C1852      C1853   1.413       .  A
C1852      F1868   1.357       .  S
C1853      C1854   1.416       .  A
C1854      F1857   1.358   1_554  S
C1855      C1858   1.402       .  A
C1855      C1862   1.404       .  A
C1858      C1859   1.399       .  A
C1858      F1863   1.358       .  S
C1859      C1860   1.412       .  A
C1859      F1865   1.358       .  S
C1860      C1861   1.411       .  A
C1861      C1862   1.403       .  A
C1861      F1864   1.358       .  S
C1862      F1866   1.358       .  S
C1869      C1870   1.405       .  A
C1869      C1874   1.398       .  A
C1869      F1887   1.358       .  S
C1870      C1875   1.483       .  S
C1870      C1871   1.406       .  A
C1871      C1872   1.401       .  A
C1871      F1876   1.358       .  S
C1872      C1873   1.410       .  A
C1872      F1888   1.358       .  S
C1873      C1874   1.409       .  A
C1874      F1877   1.358       .  S
C1875      C1878   1.404       .  A
C1875      C1882   1.406       .  A
C1878      C1879   1.399       .  A
C1878      F1883   1.358       .  S
C1879      C1880   1.412       .  A
C1879      F1885   1.358       .  S
C1880      C1881   1.410       .  A
C1881      C1882   1.401       .  A
C1881      F1884   1.358       .  S
C1882      F1886   1.358       .  S
C1889      C1890   1.409       .  A
C1889      C1894   1.403       .  A
C1889      F1907   1.358       .  S
C1890      C1895   1.490       .  S
C1890      C1891   1.407       .  A
C1891      C1892   1.399       .  A
C1891      F1896   1.358       .  S
C1892      C1893   1.406       .  A
C1892      F1908   1.358       .  S
C1893      C1894   1.407       .  A
C1894      F1897   1.358       .  S
C1895      C1898   1.409       .  A
C1895      C1902   1.409       .  A
C1898      C1899   1.405       .  A
C1898      F1903   1.358       .  S
C1899      C1900   1.406       .  A
C1899      F1905   1.358       .  S
C1900      C1901   1.401       .  A
C1901      C1902   1.398       .  A
C1901      F1904   1.358       .  S
C1902      F1906   1.358       .  S
C1909      C1910   1.407       .  A
C1909      C1914   1.404       .  A
C1909      F1927   1.357       .  S
C1910      C1915   1.481       .  S
C1910      C1911   1.403       .  A
C1911      C1912   1.391       .  A
C1911      F1916   1.359       .  S
C1912      C1913   1.411       .  A
C1912      F1928   1.359       .  S
C1913      C1914   1.408       .  A
C1914      F1917   1.357       .  S
C1915      C1918   1.405       .  A
C1915      C1922   1.407       .  A
C1918      C1919   1.396       .  A
C1918      F1923   1.358       .  S
C1919      C1920   1.407       .  A
C1919      F1925   1.358       .  S
C1920      C1921   1.406       .  A
C1921      C1922   1.401       .  A
C1921      F1924   1.358       .  S
C1922      F1926   1.358       .  S
C1929      C1930   1.404       .  A
C1929      C1934   1.396       .  A
C1929      F1947   1.358       .  S
C1930      C1935   1.483       .  S
C1930      C1931   1.406       .  A
C1931      C1932   1.401       .  A
C1931      F1936   1.358       .  S
C1932      C1933   1.409       .  A
C1932      F1948   1.358       .  S
C1933      C1934   1.412       .  A
C1934      F1937   1.358       .  S
C1935      C1938   1.405       .  A
C1935      C1942   1.406       .  A
C1938      C1939   1.397       .  A
C1938      F1943   1.358       .  S
C1939      C1940   1.410       .  A
C1939      F1945   1.358       .  S
C1940      C1941   1.409       .  A
C1941      C1942   1.400       .  A
C1941      F1944   1.358       .  S
C1942      F1946   1.358       .  S
C1949      C1950   1.407       .  A
C1949      C1954   1.398       .  A
C1949      F1967   1.358       .  S
C1950      C1955   1.496       .  S
C1950      C1951   1.409       .  A
C1951      C1952   1.405       .  A
C1951      F1956   1.358       .  S
C1952      C1953   1.412       .  A
C1952      F1968   1.358       .  S
C1953      C1954   1.411       .  A
C1954      F1957   1.358       .  S
C1955      C1958   1.408       .  A
C1955      C1962   1.409       .  A
C1958      C1959   1.401       .  A
C1958      F1963   1.358       .  S
C1959      C1960   1.411       .  A
C1959      F1965   1.358   1_554  S
C1960      C1961   1.411       .  A
C1961      C1962   1.403       .  A
C1961      F1964   1.358       .  S
C1962      F1966   1.358       .  S
C1969      C1970   1.406       .  A
C1969      C1974   1.403       .  A
C1969      F1987   1.358       .  S
C1970      C1975   1.474       .  S
C1970      C1971   1.401       .  A
C1971      C1972   1.392       .  A
C1971      F1976   1.358       .  S
C1972      C1973   1.407       .  A
C1972      F1988   1.358       .  S
C1973      C1974   1.407       .  A
C1974      F1977   1.357       .  S
C1975      C1978   1.402       .  A
C1975      C1982   1.403       .  A
C1978      C1979   1.395       .  A
C1978      F1983   1.358       .  S
C1979      C1980   1.410       .  A
C1979      F1985   1.358       .  S
C1980      C1981   1.411       .  A
C1981      C1982   1.400       .  A
C1981      F1984   1.358       .  S
C1982      F1986   1.358       .  S
C1989      C1990   1.405       .  A
C1989      C1994   1.401       .  A
C1989      F2007   1.358       .  S
C1990      C1995   1.488       .  S
C1990      C1991   1.408       .  A
C1991      C1992   1.402       .  A
C1991      F1996   1.358       .  S
C1992      C1993   1.410       .  A
C1992      F2008   1.358       .  S
C1993      C1994   1.410       .  A
C1994      F1997   1.358       .  S
C1995      C1998   1.403       .  A
C1995      C2002   1.408       .  A
C1998      C1999   1.397       .  A
C1998      F2003   1.358       .  S
C1999      C2000   1.415       .  A
C1999      F2005   1.358       .  S
C2000      C2001   1.410       .  A
C2001      C2002   1.404       .  A
C2001      F2004   1.358       .  S
C2002      F2006   1.358       .  S
C2009      C2010   1.402       .  A
C2009      C2014   1.399       .  A
C2009      F2027   1.358       .  S
C2010      C2015   1.476       .  S
C2010      C2011   1.402       .  A
C2011      C2012   1.397       .  A
C2011      F2016   1.358       .  S
C2012      C2013   1.411       .  A
C2012      F2028   1.358       .  S
C2013      C2014   1.413       .  A
C2014      F2017   1.358       .  S
C2015      C2018   1.404       .  A
C2015      C2022   1.403       .  A
C2018      C2019   1.399       .  A
C2018      F2023   1.358       .  S
C2019      C2020   1.408       .  A
C2019      F2025   1.358       .  S
C2020      C2021   1.408       .  A
C2021      C2022   1.397       .  A
C2021      F2024   1.358       .  S
C2022      F2026   1.358       .  S
C2029      C2030   1.403       .  A
C2029      C2034   1.393       .  A
C2029      F2047   1.358       .  S
C2030      C2035   1.473       .  S
C2030      C2031   1.406       .  A
C2031      C2032   1.401       .  A
C2031      F2036   1.358       .  S
C2032      C2033   1.405       .  A
C2032      F2048   1.358       .  S
C2033      C2034   1.404       .  A
C2034      F2037   1.358       .  S
C2035      C2038   1.402       .  A
C2035      C2042   1.403       .  A
C2038      C2039   1.392       .  A
C2038      F2043   1.359       .  S
C2039      C2040   1.408       .  A
C2039      F2045   1.358       .  S
C2040      C2041   1.410       .  A
C2041      C2042   1.401       .  A
C2041      F2044   1.358       .  S
C2042      F2046   1.357       .  S
C2049      C2050   1.406       .  A
C2049      C2054   1.405       .  A
C2049      F2067   1.357       .  S
C2050      C2055   1.474       .  S
C2050      C2051   1.400       .  A
C2051      C2052   1.392       .  A
C2051      F2056   1.358       .  S
C2052      C2053   1.408       .  A
C2052      F2068   1.359       .  S
C2053      C2054   1.407       .  A
C2054      F2057   1.357       .  S
C2055      C2058   1.403       .  A
C2055      C2062   1.402       .  A
C2058      C2059   1.395       .  A
C2058      F2063   1.358       .  S
C2059      C2060   1.408       .  A
C2059      F2065   1.358       .  S
C2060      C2061   1.411       .  A
C2061      C2062   1.401       .  A
C2061      F2064   1.358       .  S
C2062      F2066   1.357       .  S
C2069      C2070   1.406       .  A
C2069      C2074   1.397       .  A
C2069      F2087   1.358       .  S
C2070      C2075   1.481   1_455  S
C2070      C2071   1.403       .  A
C2071      C2072   1.397       .  A
C2071      F2076   1.358       .  S
C2072      C2073   1.413       .  A
C2072      F2088   1.358       .  S
C2073      C2074   1.410       .  A
C2074      F2077   1.358       .  S
C2075      C2078   1.407       .  A
C2075      C2082   1.402   1_655  A
C2078      C2079   1.400       .  A
C2078      F2083   1.358       .  S
C2079      C2080   1.409       .  A
C2079      F2085   1.357       .  S
C2080      C2081   1.414       .  A
C2081      C2082   1.393   1_655  A
C2081      F2084   1.358       .  S
C2082      F2086   1.358       .  S
C2089      C2090   1.407       .  A
C2089      C2094   1.401       .  A
C2089      F2107   1.358       .  S
C2090      C2095   1.489       .  S
C2090      C2091   1.407   1_554  A
C2091      C2092   1.396       .  A
C2091      F2096   1.358       .  S
C2092      C2093   1.411       .  A
C2092      F2108   1.359       .  S
C2093      C2094   1.412   1_556  A
C2094      F2097   1.357       .  S
C2095      C2098   1.408       .  A
C2095      C2102   1.409       .  A
C2098      C2099   1.398       .  A
C2098      F2103   1.358       .  S
C2099      C2100   1.407       .  A
C2099      F2105   1.358       .  S
C2100      C2101   1.408       .  A
C2101      C2102   1.400       .  A
C2101      F2104   1.358       .  S
C2102      F2106   1.358   1_554  S
C2109      C2110   1.400   1_554  A
C2109      C2114   1.391       .  A
C2109      F2127   1.358       .  S
C2110      C2115   1.468       .  S
C2110      C2111   1.401       .  A
C2111      C2112   1.401       .  A
C2111      F2116   1.358       .  S
C2112      C2113   1.412   1_556  A
C2112      F2128   1.358   1_455  S
C2113      C2114   1.408       .  A
C2114      F2117   1.358       .  S
C2115      C2118   1.401       .  A
C2115      C2122   1.403       .  A
C2118      C2119   1.395       .  A
C2118      F2123   1.358       .  S
C2119      C2120   1.408       .  A
C2119      F2125   1.358       .  S
C2120      C2121   1.405       .  A
C2121      C2122   1.398       .  A
C2121      F2124   1.358       .  S
C2122      F2126   1.358   1_556  S
C2129      C2130   1.404       .  A
C2129      C2134   1.395       .  A
C2129      F2147   1.358       .  S
C2130      C2135   1.476       .  S
C2130      C2131   1.404       .  A
C2131      C2132   1.396       .  A
C2131      F2136   1.358       .  S
C2132      C2133   1.408       .  A
C2132      F2148   1.358       .  S
C2133      C2134   1.409       .  A
C2134      F2137   1.358       .  S
C2135      C2138   1.403       .  A
C2135      C2142   1.405       .  A
C2138      C2139   1.394       .  A
C2138      F2143   1.358       .  S
C2139      C2140   1.411       .  A
C2139      F2145   1.358       .  S
C2140      C2141   1.407       .  A
C2141      C2142   1.397       .  A
C2141      F2144   1.358       .  S
C2142      F2146   1.358       .  S
C2149      C2150   1.406       .  A
C2149      C2154   1.400       .  A
C2149      F2167   1.358       .  S
C2150      C2155   1.487       .  S
C2150      C2151   1.406   1_455  A
C2151      C2152   1.400       .  A
C2151      F2156   1.358       .  S
C2152      C2153   1.411       .  A
C2152      F2168   1.358       .  S
C2153      C2154   1.410   1_655  A
C2154      F2157   1.358       .  S
C2155      C2158   1.406       .  A
C2155      C2162   1.407       .  A
C2158      C2159   1.399       .  A
C2158      F2163   1.358       .  S
C2159      C2160   1.410       .  A
C2159      F2165   1.358       .  S
C2160      C2161   1.409       .  A
C2161      C2162   1.401       .  A
C2161      F2164   1.358       .  S
C2162      F2166   1.358       .  S
C2169      C2170   1.402       .  A
C2169      C2174   1.399       .  A
C2169      F2187   1.358       .  S
C2170      C2175   1.476       .  S
C2170      C2171   1.403       .  A
C2171      C2172   1.400       .  A
C2171      F2176   1.358       .  S
C2172      C2173   1.411       .  A
C2172      F2188   1.358       .  S
C2173      C2174   1.409       .  A
C2174      F2177   1.358       .  S
C2175      C2178   1.402       .  A
C2175      C2182   1.400       .  A
C2178      C2179   1.404       .  A
C2178      F2183   1.358       .  S
C2179      C2180   1.414       .  A
C2179      F2185   1.357       .  S
C2180      C2181   1.414       .  A
C2181      C2182   1.396       .  A
C2181      F2184   1.358       .  S
C2182      F2186   1.358       .  S
C2189      C2190   1.403       .  A
C2189      C2194   1.395       .  A
C2189      F2207   1.358       .  S
C2190      C2195   1.478       .  S
C2190      C2191   1.406       .  A
C2191      C2192   1.403       .  A
C2191      F2196   1.357       .  S
C2192      C2193   1.406       .  A
C2192      F2208   1.358       .  S
C2193      C2194   1.406       .  A
C2194      F2197   1.358       .  S
C2195      C2198   1.403       .  A
C2195      C2202   1.402       .  A
C2198      C2199   1.401       .  A
C2198      F2203   1.358       .  S
C2199      C2200   1.412       .  A
C2199      F2205   1.357       .  S
C2200      C2201   1.413       .  A
C2201      C2202   1.398       .  A
C2201      F2204   1.358       .  S
C2202      F2206   1.358       .  S
C2209      C2210   1.400       .  A
C2209      C2214   1.394       .  A
C2209      F2227   1.358       .  S
C2210      C2215   1.478       .  S
C2210      C2211   1.405       .  A
C2211      C2212   1.404       .  A
C2211      F2216   1.358       .  S
C2212      C2213   1.412       .  A
C2212      F2228   1.358       .  S
C2213      C2214   1.413       .  A
C2214      F2217   1.358       .  S
C2215      C2218   1.403       .  A
C2215      C2222   1.403       .  A
C2218      C2219   1.397       .  A
C2218      F2223   1.358       .  S
C2219      C2220   1.410       .  A
C2219      F2225   1.358       .  S
C2220      C2221   1.412       .  A
C2221      C2222   1.401       .  A
C2221      F2224   1.358       .  S
C2222      F2226   1.358       .  S
C2229      C2230   1.400       .  A
C2229      C2234   1.398       .  A
C2229      F2247   1.358       .  S
C2230      C2235   1.477       .  S
C2230      C2231   1.403       .  A
C2231      C2232   1.400       .  A
C2231      F2236   1.358       .  S
C2232      C2233   1.412       .  A
C2232      F2248   1.357       .  S
C2233      C2234   1.416       .  A
C2234      F2237   1.358       .  S
C2235      C2238   1.400       .  A
C2235      C2242   1.405       .  A
C2238      C2239   1.396       .  A
C2238      F2243   1.358       .  S
C2239      C2240   1.413       .  A
C2239      F2245   1.358   1_556  S
C2240      C2241   1.409       .  A
C2241      C2242   1.402       .  A
C2241      F2244   1.357       .  S
C2242      F2246   1.358       .  S
C2249      C2250   1.400       .  A
C2249      C2254   1.396       .  A
C2249      F2267   1.358       .  S
C2250      C2255   1.479       .  S
C2250      C2251   1.403       .  A
C2251      C2252   1.406       .  A
C2251      F2256   1.358       .  S
C2252      C2253   1.416       .  A
C2252      F2268   1.357       .  S
C2253      C2254   1.414       .  A
C2254      F2257   1.358       .  S
C2255      C2258   1.403   1_455  A
C2255      C2262   1.404       .  A
C2258      C2259   1.401       .  A
C2258      F2263   1.358       .  S
C2259      C2260   1.410       .  A
C2259      F2265   1.358       .  S
C2260      C2261   1.409   1_655  A
C2261      C2262   1.401       .  A
C2261      F2264   1.358       .  S
C2262      F2266   1.358       .  S
C2269      C2270   1.400       .  A
C2269      C2274   1.402       .  A
C2269      F2287   1.357       .  S
C2270      C2275   1.467       .  S
C2270      C2271   1.398       .  A
C2271      C2272   1.389       .  A
C2271      F2276   1.359       .  S
C2272      C2273   1.413       .  A
C2272      F2288   1.358       .  S
C2273      C2274   1.414       .  A
C2274      F2277   1.357   1_565  S
C2275      C2278   1.401       .  A
C2275      C2282   1.403       .  A
C2278      C2279   1.392       .  A
C2278      F2283   1.358       .  S
C2279      C2280   1.404       .  A
C2279      F2285   1.358       .  S
C2280      C2281   1.406       .  A
C2281      C2282   1.401       .  A
C2281      F2284   1.358       .  S
C2282      F2286   1.358       .  S
C2289      C2290   1.401       .  A
C2289      C2294   1.398       .  A
C2289      F2307   1.358       .  S
C2290      C2295   1.477       .  S
C2290      C2291   1.402       .  A
C2291      C2292   1.399       .  A
C2291      F2296   1.358       .  S
C2292      C2293   1.413       .  A
C2292      F2308   1.358       .  S
C2293      C2294   1.413       .  A
C2294      F2297   1.358       .  S
C2295      C2298   1.404       .  A
C2295      C2302   1.401       .  A
C2298      C2299   1.399       .  A
C2298      F2303   1.358       .  S
C2299      C2300   1.410       .  A
C2299      F2305   1.358       .  S
C2300      C2301   1.412       .  A
C2301      C2302   1.398       .  A
C2301      F2304   1.358   1_655  S
C2302      F2306   1.358       .  S
C2309      C2310   1.406       .  A
C2309      C2314   1.397       .  A
C2309      F2327   1.358       .  S
C2310      C2315   1.476       .  S
C2310      C2311   1.403       .  A
C2311      C2312   1.395       .  A
C2311      F2316   1.358       .  S
C2312      C2313   1.408       .  A
C2312      F2328   1.358       .  S
C2313      C2314   1.406       .  A
C2314      F2317   1.358       .  S
C2315      C2318   1.401       .  A
C2315      C2322   1.406       .  A
C2318      C2319   1.391       .  A
C2318      F2323   1.358       .  S
C2319      C2320   1.411       .  A
C2319      F2325   1.358       .  S
C2320      C2321   1.408       .  A
C2321      C2322   1.401       .  A
C2321      F2324   1.358       .  S
C2322      F2326   1.358       .  S
C2329      C2330   1.404       .  A
C2329      C2334   1.394   1_655  A
C2329      F2347   1.358       .  S
C2330      C2335   1.479       .  S
C2330      C2331   1.406       .  A
C2331      C2332   1.399   1_655  A
C2331      F2336   1.358       .  S
C2332      C2333   1.408       .  A
C2332      F2348   1.358       .  S
C2333      C2334   1.409       .  A
C2334      F2337   1.358       .  S
C2335      C2338   1.406       .  A
C2335      C2342   1.404       .  A
C2338      C2339   1.400       .  A
C2338      F2343   1.358       .  S
C2339      C2340   1.408       .  A
C2339      F2345   1.358       .  S
C2340      C2341   1.409       .  A
C2341      C2342   1.394       .  A
C2341      F2344   1.358       .  S
C2342      F2346   1.358   1_655  S
C2349      C2350   1.406       .  A
C2349      C2354   1.400       .  A
C2349      F2367   1.358       .  S
C2350      C2355   1.488       .  S
C2350      C2351   1.405       .  A
C2351      C2352   1.403       .  A
C2351      F2356   1.358       .  S
C2352      C2353   1.413       .  A
C2352      F2368   1.358       .  S
C2353      C2354   1.410       .  A
C2354      F2357   1.358       .  S
C2355      C2358   1.407       .  A
C2355      C2362   1.404       .  A
C2358      C2359   1.407       .  A
C2358      F2363   1.357       .  S
C2359      C2360   1.412   1_556  A
C2359      F2365   1.358   1_556  S
C2360      C2361   1.411   1_554  A
C2361      C2362   1.394       .  A
C2361      F2364   1.358       .  S
C2362      F2366   1.358       .  S
C2369      C2370   1.400       .  A
C2369      C2374   1.397       .  A
C2369      F2387   1.358       .  S
C2370      C2375   1.467       .  S
C2370      C2371   1.401       .  A
C2371      C2372   1.396       .  A
C2371      F2376   1.358       .  S
C2372      C2373   1.407       .  A
C2372      F2388   1.358       .  S
C2373      C2374   1.411       .  A
C2374      F2377   1.358       .  S
C2375      C2378   1.400       .  A
C2375      C2382   1.402       .  A
C2378      C2379   1.397       .  A
C2378      F2383   1.357       .  S
C2379      C2380   1.409       .  A
C2379      F2385   1.358       .  S
C2380      C2381   1.407       .  A
C2381      C2382   1.395       .  A
C2381      F2384   1.358       .  S
C2382      F2386   1.358       .  S
C2389      C2390   1.404       .  A
C2389      C2394   1.398       .  A
C2389      F2407   1.358       .  S
C2390      C2395   1.477   1_455  S
C2390      C2391   1.403       .  A
C2391      C2392   1.397       .  A
C2391      F2396   1.358       .  S
C2392      C2393   1.411       .  A
C2392      F2408   1.358       .  S
C2393      C2394   1.408       .  A
C2394      F2397   1.358       .  S
C2395      C2398   1.401       .  A
C2395      C2402   1.404       .  A
C2398      C2399   1.397       .  A
C2398      F2403   1.358       .  S
C2399      C2400   1.412       .  A
C2399      F2405   1.357       .  S
C2400      C2401   1.411       .  A
C2401      C2402   1.400       .  A
C2401      F2404   1.358       .  S
C2402      F2406   1.358   1_655  S
C2409      C2410   1.403       .  A
C2409      C2414   1.401       .  A
C2409      F2427   1.358       .  S
C2410      C2415   1.488       .  S
C2410      C2411   1.408       .  A
C2411      C2412   1.406       .  A
C2411      F2416   1.358       .  S
C2412      C2413   1.408       .  A
C2412      F2428   1.358       .  S
C2413      C2414   1.411       .  A
C2414      F2417   1.358       .  S
C2415      C2418   1.405       .  A
C2415      C2422   1.404       .  A
C2418      C2419   1.405       .  A
C2418      F2423   1.358       .  S
C2419      C2420   1.414       .  A
C2419      F2425   1.358       .  S
C2420      C2421   1.412       .  A
C2421      C2422   1.403       .  A
C2421      F2424   1.358       .  S
C2422      F2426   1.358       .  S
C2429      C2430   1.403       .  A
C2429      C2434   1.397       .  A
C2429      F2447   1.358       .  S
C2430      C2435   1.469       .  S
C2430      C2431   1.400       .  A
C2431      C2432   1.392       .  A
C2431      F2436   1.358       .  S
C2432      C2433   1.412       .  A
C2432      F2448   1.358       .  S
C2433      C2434   1.410       .  A
C2434      F2437   1.358       .  S
C2435      C2438   1.403       .  A
C2435      C2442   1.402       .  A
C2438      C2439   1.396       .  A
C2438      F2443   1.358       .  S
C2439      C2440   1.406       .  A
C2439      F2445   1.358       .  S
C2440      C2441   1.407       .  A
C2441      C2442   1.393       .  A
C2441      F2444   1.358       .  S
C2442      F2446   1.358       .  S
C2449      C2450   1.407       .  A
C2449      C2454   1.405       .  A
C2449      F2467   1.357       .  S
C2450      C2455   1.484       .  S
C2450      C2451   1.404       .  A
C2451      C2452   1.397       .  A
C2451      F2456   1.358       .  S
C2452      C2453   1.406       .  A
C2452      F2468   1.358       .  S
C2453      C2454   1.407       .  A
C2454      F2457   1.358       .  S
C2455      C2458   1.403       .  A
C2455      C2462   1.404       .  A
C2458      C2459   1.400       .  A
C2458      F2463   1.358       .  S
C2459      C2460   1.414       .  A
C2459      F2465   1.358       .  S
C2460      C2461   1.413       .  A
C2461      C2462   1.403       .  A
C2461      F2464   1.358       .  S
C2462      F2466   1.358       .  S
C2469      C2470   1.405       .  A
C2469      C2474   1.404       .  A
C2469      F2487   1.357       .  S
C2470      C2475   1.475       .  S
C2470      C2471   1.401       .  A
C2471      C2472   1.392       .  A
C2471      F2476   1.359       .  S
C2472      C2473   1.410       .  A
C2472      F2488   1.359       .  S
C2473      C2474   1.409       .  A
C2474      F2477   1.357       .  S
C2475      C2478   1.403       .  A
C2475      C2482   1.403       .  A
C2478      C2479   1.399       .  A
C2478      F2483   1.358       .  S
C2479      C2480   1.409       .  A
C2479      F2485   1.358       .  S
C2480      C2481   1.406       .  A
C2481      C2482   1.397       .  A
C2481      F2484   1.358       .  S
C2482      F2486   1.358       .  S
C2489      C2490   1.403       .  A
C2489      C2494   1.397       .  A
C2489      F2507   1.358       .  S
C2490      C2495   1.477       .  S
C2490      C2491   1.402       .  A
C2491      C2492   1.398       .  A
C2491      F2496   1.358       .  S
C2492      C2493   1.414       .  A
C2492      F2508   1.358       .  S
C2493      C2494   1.411       .  A
C2494      F2497   1.358       .  S
C2495      C2498   1.400       .  A
C2495      C2502   1.405       .  A
C2498      C2499   1.394       .  A
C2498      F2503   1.358       .  S
C2499      C2500   1.415       .  A
C2499      F2505   1.358       .  S
C2500      C2501   1.410       .  A
C2501      C2502   1.400       .  A
C2501      F2504   1.358       .  S
C2502      F2506   1.358       .  S
C2509      C2510   1.404       .  A
C2509      C2514   1.397       .  A
C2509      F2527   1.358       .  S
C2510      C2515   1.484       .  S
C2510      C2511   1.406   1_556  A
C2511      C2512   1.404       .  A
C2511      F2516   1.358       .  S
C2512      C2513   1.411       .  A
C2512      F2528   1.358       .  S
C2513      C2514   1.410   1_554  A
C2514      F2517   1.358       .  S
C2515      C2518   1.406       .  A
C2515      C2522   1.403       .  A
C2518      C2519   1.406       .  A
C2518      F2523   1.357       .  S
C2519      C2520   1.411       .  A
C2519      F2525   1.357       .  S
C2520      C2521   1.413       .  A
C2521      C2522   1.394       .  A
C2521      F2524   1.358       .  S
C2522      F2526   1.359       .  S
C2529      C2530   1.407       .  A
C2529      C2534   1.404       .  A
C2529      F2547   1.358       .  S
C2530      C2535   1.479       .  S
C2530      C2531   1.403   1_554  A
C2531      C2532   1.394   1_556  A
C2531      F2536   1.358       .  S
C2532      C2533   1.407       .  A
C2532      F2548   1.358   1_554  S
C2533      C2534   1.407       .  A
C2534      F2537   1.357       .  S
C2535      C2538   1.403   1_554  A
C2535      C2542   1.403       .  A
C2538      C2539   1.400       .  A
C2538      F2543   1.358       .  S
C2539      C2540   1.412       .  A
C2539      F2545   1.358   1_655  S
C2540      C2541   1.412   1_556  A
C2541      C2542   1.397       .  A
C2541      F2544   1.358       .  S
C2542      F2546   1.358       .  S
C2549      C2550   1.402       .  A
C2549      C2554   1.396       .  A
C2549      F2567   1.358       .  S
C2550      C2555   1.471       .  S
C2550      C2551   1.403       .  A
C2551      C2552   1.396       .  A
C2551      F2556   1.358       .  S
C2552      C2553   1.408       .  A
C2552      F2568   1.358       .  S
C2553      C2554   1.409       .  A
C2554      F2557   1.358       .  S
C2555      C2558   1.401       .  A
C2555      C2562   1.406       .  A
C2558      C2559   1.393       .  A
C2558      F2563   1.358       .  S
C2559      C2560   1.408       .  A
C2559      F2565   1.358       .  S
C2560      C2561   1.405       .  A
C2561      C2562   1.400       .  A
C2561      F2564   1.358       .  S
C2562      F2566   1.358       .  S
C2569      C2570   1.401       .  A
C2569      C2574   1.393       .  A
C2569      F2587   1.358       .  S
C2570      C2575   1.472       .  S
C2570      C2571   1.405       .  A
C2571      C2572   1.398       .  A
C2571      F2576   1.358       .  S
C2572      C2573   1.408       .  A
C2572      F2588   1.358       .  S
C2573      C2574   1.409       .  A
C2574      F2577   1.358       .  S
C2575      C2578   1.404       .  A
C2575      C2582   1.402       .  A
C2578      C2579   1.396       .  A
C2578      F2583   1.358       .  S
C2579      C2580   1.409       .  A
C2579      F2585   1.358       .  S
C2580      C2581   1.409       .  A
C2581      C2582   1.394       .  A
C2581      F2584   1.358       .  S
C2582      F2586   1.358       .  S
C2589      C2590   1.401       .  A
C2589      C2594   1.401       .  A
C2589      F2607   1.357       .  S
C2590      C2595   1.471       .  S
C2590      C2591   1.401       .  A
C2591      C2592   1.395       .  A
C2591      F2596   1.358       .  S
C2592      C2593   1.410       .  A
C2592      F2608   1.358       .  S
C2593      C2594   1.411       .  A
C2594      F2597   1.358       .  S
C2595      C2598   1.402       .  A
C2595      C2602   1.402       .  A
C2598      C2599   1.397       .  A
C2598      F2603   1.358       .  S
C2599      C2600   1.408       .  A
C2599      F2605   1.359       .  S
C2600      C2601   1.406       .  A
C2601      C2602   1.399       .  A
C2601      F2604   1.357       .  S
C2602      F2606   1.357       .  S
C2609      C2610   1.404       .  A
C2609      C2614   1.398       .  A
C2609      F2627   1.358       .  S
C2610      C2615   1.478       .  S
C2610      C2611   1.406       .  A
C2611      C2612   1.400       .  A
C2611      F2616   1.358       .  S
C2612      C2613   1.403       .  A
C2612      F2628   1.358       .  S
C2613      C2614   1.405       .  A
C2614      F2617   1.358       .  S
C2615      C2618   1.403       .  A
C2615      C2622   1.401       .  A
C2618      C2619   1.397       .  A
C2618      F2623   1.358       .  S
C2619      C2620   1.412       .  A
C2619      F2625   1.358       .  S
C2620      C2621   1.414       .  A
C2621      C2622   1.399       .  A
C2621      F2624   1.358       .  S
C2622      F2626   1.358       .  S
C2629      C2630   1.409       .  A
C2629      C2634   1.404       .  A
C2629      F2647   1.358       .  S
C2630      C2635   1.488       .  S
C2630      C2631   1.406       .  A
C2631      C2632   1.397       .  A
C2631      F2636   1.358       .  S
C2632      C2633   1.406       .  A
C2632      F2648   1.358       .  S
C2633      C2634   1.406       .  A
C2634      F2637   1.358       .  S
C2635      C2638   1.406       .  A
C2635      C2642   1.406       .  A
C2638      C2639   1.401       .  A
C2638      F2643   1.358       .  S
C2639      C2640   1.412       .  A
C2639      F2645   1.358       .  S
C2640      C2641   1.412       .  A
C2641      C2642   1.400       .  A
C2641      F2644   1.358       .  S
C2642      F2646   1.358       .  S
C2649      C2650   1.402       .  A
C2649      C2654   1.397       .  A
C2649      F2667   1.358       .  S
C2650      C2655   1.464   1_455  S
C2650      C2651   1.399       .  A
C2651      C2652   1.392       .  A
C2651      F2656   1.358   1_455  S
C2652      C2653   1.409       .  A
C2652      F2668   1.358       .  S
C2653      C2654   1.407       .  A
C2654      F2657   1.358       .  S
C2655      C2658   1.398       .  A
C2655      C2662   1.400       .  A
C2658      C2659   1.393       .  A
C2658      F2663   1.358       .  S
C2659      C2660   1.412       .  A
C2659      F2665   1.358       .  S
C2660      C2661   1.412       .  A
C2661      C2662   1.395       .  A
C2661      F2664   1.358       .  S
C2662      F2666   1.358   1_655  S
C2669      C2670   1.404       .  A
C2669      C2674   1.394       .  A
C2669      F2687   1.358       .  S
C2670      C2675   1.484       .  S
C2670      C2671   1.408       .  A
C2671      C2672   1.406       .  A
C2671      F2676   1.357       .  S
C2672      C2673   1.408       .  A
C2672      F2688   1.358       .  S
C2673      C2674   1.406       .  A
C2674      F2677   1.358       .  S
C2675      C2678   1.403       .  A
C2675      C2682   1.405       .  A
C2678      C2679   1.398       .  A
C2678      F2683   1.358       .  S
C2679      C2680   1.414       .  A
C2679      F2685   1.358       .  S
C2680      C2681   1.413       .  A
C2681      C2682   1.403       .  A
C2681      F2684   1.358       .  S
C2682      F2686   1.358       .  S
C2689      C2690   1.403       .  A
C2689      C2694   1.396       .  A
C2689      F2707   1.358       .  S
C2690      C2695   1.477       .  S
C2690      C2691   1.402       .  A
C2691      C2692   1.397       .  A
C2691      F2696   1.358       .  S
C2692      C2693   1.411       .  A
C2692      F2708   1.358       .  S
C2693      C2694   1.412       .  A
C2694      F2697   1.358       .  S
C2695      C2698   1.404       .  A
C2695      C2702   1.401       .  A
C2698      C2699   1.398       .  A
C2698      F2703   1.358       .  S
C2699      C2700   1.412       .  A
C2699      F2705   1.358       .  S
C2700      C2701   1.414       .  A
C2701      C2702   1.396       .  A
C2701      F2704   1.358       .  S
C2702      F2706   1.358       .  S
C2709      C2710   1.401       .  A
C2709      C2714   1.397       .  A
C2709      F2727   1.358       .  S
C2710      C2715   1.474       .  S
C2710      C2711   1.401       .  A
C2711      C2712   1.398       .  A
C2711      F2716   1.358   1_655  S
C2712      C2713   1.413       .  A
C2712      F2728   1.358       .  S
C2713      C2714   1.413       .  A
C2714      F2717   1.358       .  S
C2715      C2718   1.401   1_655  A
C2715      C2722   1.400       .  A
C2718      C2719   1.399       .  A
C2718      F2723   1.358       .  S
C2719      C2720   1.413       .  A
C2719      F2725   1.358       .  S
C2720      C2721   1.414       .  A
C2721      C2722   1.398   1_455  A
C2721      F2724   1.358   1_455  S
C2722      F2726   1.358       .  S
C2729      C2730   1.400       .  A
C2729      C2734   1.396   1_455  A
C2729      F2747   1.358       .  S
C2730      C2735   1.475       .  S
C2730      C2731   1.403   1_455  A
C2731      C2732   1.400       .  A
C2731      F2736   1.358       .  S
C2732      C2733   1.412       .  A
C2732      F2748   1.358       .  S
C2733      C2734   1.414       .  A
C2734      F2737   1.358       .  S
C2735      C2738   1.402       .  A
C2735      C2742   1.401       .  A
C2738      C2739   1.398       .  A
C2738      F2743   1.358       .  S
C2739      C2740   1.412       .  A
C2739      F2745   1.358       .  S
C2740      C2741   1.414       .  A
C2741      C2742   1.397       .  A
C2741      F2744   1.358       .  S
C2742      F2746   1.358       .  S
C2749      C2750   1.405       .  A
C2749      C2754   1.398   1_455  A
C2749      F2767   1.358       .  S
C2750      C2755   1.477   1_556  S
C2750      C2751   1.404   1_456  A
C2751      C2752   1.396   1_554  A
C2751      F2756   1.358       .  S
C2752      C2753   1.406       .  A
C2752      F2768   1.358   1_556  S
C2753      C2754   1.406       .  A
C2754      F2757   1.358       .  S
C2755      C2758   1.405       .  A
C2755      C2762   1.402       .  A
C2758      C2759   1.400       .  A
C2758      F2763   1.358   1_454  S
C2759      C2760   1.408       .  A
C2759      F2765   1.358       .  S
C2760      C2761   1.411       .  A
C2761      C2762   1.395       .  A
C2761      F2764   1.358       .  S
C2762      F2766   1.358       .  S
C2769      C2770   1.404       .  A
C2769      C2774   1.403   1_455  A
C2769      F2787   1.358       .  S
C2770      C2775   1.477       .  S
C2770      C2771   1.402   1_455  A
C2771      C2772   1.394       .  A
C2771      F2776   1.358       .  S
C2772      C2773   1.410       .  A
C2772      F2788   1.358       .  S
C2773      C2774   1.411       .  A
C2774      F2777   1.358       .  S
C2775      C2778   1.404       .  A
C2775      C2782   1.406   1_455  A
C2778      C2779   1.398       .  A
C2778      F2783   1.358       .  S
C2779      C2780   1.405       .  A
C2779      F2785   1.358       .  S
C2780      C2781   1.403       .  A
C2781      C2782   1.400   1_455  A
C2781      F2784   1.358   1_455  S
C2782      F2786   1.358       .  S
C2789      C2790   1.406       .  A
C2789      C2794   1.407       .  A
C2789      F2807   1.357       .  S
C2790      C2795   1.480       .  S
C2790      C2791   1.401       .  A
C2791      C2792   1.395       .  A
C2791      F2796   1.358       .  S
C2792      C2793   1.410       .  A
C2792      F2808   1.358       .  S
C2793      C2794   1.410       .  A
C2794      F2797   1.358       .  S
C2795      C2798   1.402       .  A
C2795      C2802   1.402       .  A
C2798      C2799   1.400       .  A
C2798      F2803   1.358       .  S
C2799      C2800   1.414       .  A
C2799      F2805   1.358       .  S
C2800      C2801   1.414       .  A
C2801      C2802   1.402       .  A
C2801      F2804   1.358       .  S
C2802      F2806   1.358       .  S
C2809      C2810   1.410       .  A
C2809      C2814   1.402       .  A
C2809      F2827   1.358       .  S
C2810      C2815   1.491       .  S
C2810      C2811   1.410       .  A
C2811      C2812   1.400       .  A
C2811      F2816   1.358       .  S
C2812      C2813   1.403       .  A
C2812      F2828   1.358       .  S
C2813      C2814   1.402       .  A
C2814      F2817   1.357       .  S
C2815      C2818   1.407       .  A
C2815      C2822   1.408       .  A
C2818      C2819   1.399       .  A
C2818      F2823   1.358       .  S
C2819      C2820   1.408       .  A
C2819      F2825   1.358       .  S
C2820      C2821   1.409       .  A
C2821      C2822   1.402       .  A
C2821      F2824   1.358       .  S
C2822      F2826   1.358       .  S
C2829      C2830   1.401       .  A
C2829      C2834   1.398       .  A
C2829      F2847   1.358       .  S
C2830      C2835   1.481       .  S
C2830      C2831   1.404       .  A
C2831      C2832   1.402       .  A
C2831      F2836   1.358       .  S
C2832      C2833   1.413       .  A
C2832      F2848   1.357       .  S
C2833      C2834   1.414       .  A
C2834      F2837   1.358       .  S
C2835      C2838   1.403       .  A
C2835      C2842   1.402       .  A
C2838      C2839   1.401       .  A
C2838      F2843   1.358       .  S
C2839      C2840   1.415       .  A
C2839      F2845   1.357       .  S
C2840      C2841   1.413       .  A
C2841      C2842   1.400       .  A
C2841      F2844   1.358       .  S
C2842      F2846   1.358       .  S
C2849      C2850   1.404       .  A
C2849      C2854   1.400       .  A
C2849      F2867   1.358       .  S
C2850      C2855   1.481       .  S
C2850      C2851   1.405       .  A
C2851      C2852   1.399   1_455  A
C2851      F2856   1.358   1_455  S
C2852      C2853   1.407   1_655  A
C2852      F2868   1.358       .  S
C2853      C2854   1.409       .  A
C2854      F2857   1.358       .  S
C2855      C2858   1.406       .  A
C2855      C2862   1.402       .  A
C2858      C2859   1.402       .  A
C2858      F2863   1.358       .  S
C2859      C2860   1.408       .  A
C2859      F2865   1.358       .  S
C2860      C2861   1.410       .  A
C2861      C2862   1.397       .  A
C2861      F2864   1.358       .  S
C2862      F2866   1.358       .  S
C2869      C2870   1.404       .  A
C2869      C2874   1.403       .  A
C2869      F2887   1.358       .  S
C2870      C2875   1.481       .  S
C2870      C2871   1.403       .  A
C2871      C2872   1.397       .  A
C2871      F2876   1.358       .  S
C2872      C2873   1.410       .  A
C2872      F2888   1.358       .  S
C2873      C2874   1.411       .  A
C2874      F2877   1.358       .  S
C2875      C2878   1.404       .  A
C2875      C2882   1.401       .  A
C2878      C2879   1.404       .  A
C2878      F2883   1.357       .  S
C2879      C2880   1.412       .  A
C2879      F2885   1.357   1_554  S
C2880      C2881   1.415       .  A
C2881      C2882   1.394       .  A
C2881      F2884   1.358       .  S
C2882      F2886   1.359       .  S
C2889      C2890   1.406       .  A
C2889      C2894   1.402       .  A
C2889      F2907   1.358       .  S
C2890      C2895   1.484       .  S
C2890      C2891   1.404       .  A
C2891      C2892   1.397       .  A
C2891      F2896   1.358       .  S
C2892      C2893   1.411       .  A
C2892      F2908   1.358       .  S
C2893      C2894   1.410       .  A
C2894      F2897   1.358       .  S
C2895      C2898   1.405       .  A
C2895      C2902   1.405       .  A
C2898      C2899   1.395       .  A
C2898      F2903   1.358       .  S
C2899      C2900   1.410       .  A
C2899      F2905   1.358       .  S
C2900      C2901   1.413       .  A
C2901      C2902   1.402       .  A
C2901      F2904   1.358       .  S
C2902      F2906   1.358       .  S
C2909      C2910   1.402       .  A
C2909      C2914   1.394       .  A
C2909      F2927   1.358       .  S
C2910      C2915   1.474       .  S
C2910      C2911   1.403       .  A
C2911      C2912   1.401       .  A
C2911      F2916   1.358       .  S
C2912      C2913   1.411       .  A
C2912      F2928   1.358       .  S
C2913      C2914   1.409       .  A
C2914      F2917   1.358       .  S
C2915      C2918   1.403       .  A
C2915      C2922   1.401       .  A
C2918      C2919   1.397       .  A
C2918      F2923   1.358       .  S
C2919      C2920   1.408       .  A
C2919      F2925   1.358       .  S
C2920      C2921   1.412       .  A
C2921      C2922   1.399       .  A
C2921      F2924   1.358       .  S
C2922      F2926   1.358       .  S
C2929      C2930   1.404       .  A
C2929      C2934   1.397       .  A
C2929      F2947   1.358       .  S
C2930      C2935   1.488       .  S
C2930      C2931   1.408       .  A
C2931      C2932   1.402       .  A
C2931      F2936   1.358       .  S
C2932      C2933   1.409       .  A
C2932      F2948   1.358       .  S
C2933      C2934   1.413       .  A
C2934      F2937   1.358       .  S
C2935      C2938   1.408       .  A
C2935      C2942   1.404       .  A
C2938      C2939   1.402       .  A
C2938      F2943   1.358       .  S
C2939      C2940   1.411       .  A
C2939      F2945   1.358       .  S
C2940      C2941   1.413       .  A
C2941      C2942   1.396       .  A
C2941      F2944   1.358       .  S
C2942      F2946   1.358       .  S
C2949      C2950   1.402       .  A
C2949      C2954   1.401       .  A
C2949      F2967   1.358       .  S
C2950      C2955   1.477   1_655  S
C2950      C2951   1.401       .  A
C2951      C2952   1.399       .  A
C2951      F2956   1.358       .  S
C2952      C2953   1.413       .  A
C2952      F2968   1.358       .  S
C2953      C2954   1.412       .  A
C2954      F2957   1.358       .  S
C2955      C2958   1.399       .  A
C2955      C2962   1.403       .  A
C2958      C2959   1.398       .  A
C2958      F2963   1.358       .  S
C2959      C2960   1.415       .  A
C2959      F2965   1.358       .  S
C2960      C2961   1.413       .  A
C2961      C2962   1.402       .  A
C2961      F2964   1.358       .  S
C2962      F2966   1.358       .  S
C2969      C2970   1.403       .  A
C2969      C2974   1.399       .  A
C2969      F2987   1.358       .  S
C2970      C2975   1.473       .  S
C2970      C2971   1.401       .  A
C2971      C2972   1.394       .  A
C2971      F2976   1.358       .  S
C2972      C2973   1.410       .  A
C2972      F2988   1.358       .  S
C2973      C2974   1.412       .  A
C2974      F2977   1.358       .  S
C2975      C2978   1.401       .  A
C2975      C2982   1.403       .  A
C2978      C2979   1.396       .  A
C2978      F2983   1.358       .  S
C2979      C2980   1.411       .  A
C2979      F2985   1.358       .  S
C2980      C2981   1.409       .  A
C2981      C2982   1.397       .  A
C2981      F2984   1.358       .  S
C2982      F2986   1.358       .  S
