geometry optimzed in LAMMPS
_audit_creation_date              2020-12-01 
_audit_creation_method            'lammps2cif' 
_symmetry_space_group_name_H-M    'P1' 
_symmetry_Int_Tables_number       1 
_symmetry_cell_setting            triclinic 
loop_ 
_symmetry_equiv_pos_as_xyz 
  x,y,z 
_cell_length_a                    56.96820129 
_cell_length_b                    56.79439269777028 
_cell_length_c                    36.970030394561284 
_cell_angle_alpha                 89.99114373594449 
_cell_angle_beta                  89.99927942518843 
_cell_angle_gamma                 89.99218898696672 
loop_ 
_atom_site_label 
_atom_site_type_symbol 
_atom_site_fract_x 
_atom_site_fract_y 
_atom_site_fract_z 
_atom_site_charge 
Zr1        Zr  0.59245583  0.05692199  0.65595822     2.17500
O2          O  0.61501717  0.02925971  0.61939276    -0.51400
O3          O  0.56481450  0.03809724  0.61305376    -0.74600
O4          O  0.60190855  0.02079327  0.69042891    -0.81400
O5          O  0.61502875  0.11045619  0.60060983    -0.83200
O6          O  0.58371029  0.02279116  0.74496197    -0.78800
O7          O  0.62289089  0.07227772  0.61431089    -0.90400
O8          O  0.52864333  0.05416987  0.62023029    -0.76400
O9          O  0.55728419  0.05366061  0.69102041    -0.85900
O10         O  0.56619758  0.08594022  0.63224376    -0.85600
O11         O  0.60376525  0.06500377  0.71797550    -0.72300
O12         O  0.61086898  0.09444220  0.66545745    -0.84500
Zr13       Zr  0.55999504  0.12776922  0.73741511     2.26400
Zr14       Zr  0.56816865  0.06236131  0.75253896     2.06300
Zr15       Zr  0.58456976  0.12334147  0.64168034     2.10000
Zr16       Zr  0.53128763  0.08284825  0.66760533     1.78800
O17         O  0.61251701  0.15488707  0.62950387    -0.93300
O18         O  0.50264869  0.05456296  0.69020613    -0.41100
O19         O  0.54910859  0.12044695  0.67583028    -0.77700
O20         O  0.54065750  0.09055264  0.72919849    -0.96400
O21         O  0.58658401  0.09975546  0.76199449    -0.89700
O22         O  0.59504379  0.13179706  0.70301918    -0.92500
C23         C  0.54296022  0.04022192  0.60453584     1.01200
C24         C  0.62722861  0.09160832  0.59711404     1.14200
C25         C  0.59645703  0.01202740  0.72152521     1.04900
O26         O  0.54165906  0.03207212  0.77497244    -0.94700
O27         O  0.54227823  0.07669435  0.80065667    -0.90400
O28         O  0.54006576  0.11631565  0.79305895    -0.83600
C29         C  0.53515516  0.09728840  0.81019169     1.11600
O30         O  0.65818817  0.08156776  0.72158901    -0.96700
Zr31       Zr  0.62130803  0.10310026  0.72661297     1.88900
O32         O  0.58711429  0.15052743  0.77404764    -0.73300
O33         O  0.59361778  0.05916978  0.80530455    -0.52600
O34         O  0.63775544  0.08871579  0.78329726    -0.97200
O35         O  0.65053143  0.12693669  0.69525590    -0.54500
O36         O  0.62440141  0.13798803  0.76442772    -0.73800
C37         C  0.60937063  0.15193553  0.77885006     0.98500
O38         O  0.52986698  0.15562109  0.75683618    -0.62600
O39         O  0.56737044  0.12684038  0.58152556    -0.57400
O40         O  0.55062456  0.16325736  0.70411655    -0.94100
O41         O  0.56346041  0.16056117  0.64601441    -0.92600
O42         O  0.51146114  0.10334488  0.61852088    -0.92900
O43         O  0.49412318  0.10140301  0.68328599    -0.91700
C44         C  0.55284698  0.17128216  0.67186163     1.17400
H45         H  0.56328141  0.08370579  0.60674591     0.33300
H46         H  0.52588501  0.09009690  0.74192824     0.44200
H47         H  0.60138554  0.14752261  0.70474625     0.37700
H48         H  0.61527410  0.05392974  0.72675771     0.34200
H49         H  0.50810138  0.03907191  0.68126135     0.26000
H50         H  0.58279222  0.05780771  0.82614610     0.31900
H51         H  0.62985300  0.09797767  0.80244087     0.37800
H52         H  0.52382518  0.11301958  0.60705099     0.32300
H53         H  0.55486758  0.13881276  0.58387718     0.31100
H54         H  0.60931665  0.16721158  0.64777774     0.32800
H55         H  0.65528974  0.11750169  0.67395581     0.31800
H56         H  0.49862850  0.11654679  0.69460770     0.35800
H57         H  0.51524961  0.14637152  0.75971897     0.28500
H58         H  0.60683059  0.01394122  0.62148670     0.32700
H59         H  0.65477225  0.06849226  0.70468460     0.35600
H60         H  0.57962230  0.13463055  0.56677835     0.28200
H61         H  0.53429699  0.16058092  0.78158832     0.41100
H62         H  0.54872478  0.02685682  0.79811141     0.31100
H63         H  0.50539040  0.05394425  0.71663401     0.38800
H64         H  0.66447445  0.12701455  0.71124614     0.30600
H65         H  0.60101319  0.04344812  0.80338876     0.30700
H66         H  0.63001175  0.02710236  0.63248116     0.30900
Zr67       Zr  0.40786677  0.92153280  0.37091370     2.17500
O68         O  0.38185012  0.95340130  0.38961233    -0.51400
O69         O  0.43453338  0.94325480  0.41213808    -0.74600
O70         O  0.38116133  0.90961952  0.42062482    -0.81400
O71         O  0.41761032  0.95229395  0.27888694    -0.83200
O72         O  0.38805263  0.87108535  0.43331161    -0.78800
O73         O  0.39926328  0.95620757  0.33294253    -0.90400
O74         O  0.47175817  0.93015256  0.40371024    -0.76400
O75         O  0.43355453  0.89358399  0.39850987    -0.85900
O76         O  0.44425985  0.92422271  0.33909517    -0.85600
O77         O  0.38944528  0.88355763  0.36131521    -0.72300
O78         O  0.39938529  0.91183514  0.30856837    -0.84500
Zr79       Zr  0.44376021  0.84873616  0.29759613     2.26400
Zr80       Zr  0.41565253  0.85573367  0.38947456     2.06300
Zr81       Zr  0.43621901  0.91402302  0.27743983     2.10000
Zr82       Zr  0.46969258  0.89602942  0.36623678     1.78800
O83         O  0.41837888  0.92182788  0.21880504    -0.93300
O84         O  0.48178986  0.88263079  0.42608477    -0.41100
O85         O  0.46229330  0.88635028  0.30450144    -0.77700
O86         O  0.45272014  0.85815018  0.35925908    -0.96400
O87         O  0.40722832  0.84554702  0.32800927    -0.89700
O88         O  0.41857664  0.87626023  0.26847490    -0.92500
C89         C  0.45686086  0.94408440  0.41797737     1.01200
C90         C  0.40499766  0.96393541  0.30132148     1.14200
C91         C  0.37711820  0.89054806  0.43862967     1.04900
O92         O  0.43205758  0.85057320  0.44975446    -0.94700
O93         O  0.43563491  0.81750481  0.38896904    -0.90400
O94         O  0.44927869  0.81271781  0.33161046    -0.83600
C95         C  0.44644287  0.80573822  0.36428147     1.11600
O96         O  0.34406637  0.89233408  0.30613565    -0.96700
Zr97       Zr  0.38229771  0.87352915  0.29946902     1.88900
O98         O  0.41885292  0.82308804  0.26193938    -0.73300
O99         O  0.38612258  0.82516115  0.39743842    -0.52600
O100        O  0.35111830  0.84869065  0.32352012    -0.97200
O101        O  0.36957978  0.88890603  0.24110369    -0.54500
O102        O  0.38201060  0.83841622  0.26131577    -0.73800
C103        C  0.39722554  0.82275076  0.25245259     0.98500
O104        O  0.47922076  0.82722521  0.28081643    -0.62600
O105        O  0.46813048  0.94182454  0.26709742    -0.57400
O106        O  0.46434913  0.85766278  0.24222105    -0.94100
O107        O  0.46248686  0.89702842  0.23254078    -0.92600
O108        O  0.50247936  0.91959450  0.34456639    -0.92900
O109        O  0.50656031  0.87496312  0.35715975    -0.91700
C110        C  0.46986200  0.87630189  0.22456126     1.17400
H111        H  0.45063275  0.93994279  0.34069528     0.33300
H112        H  0.46405552  0.84733815  0.36913757     0.44200
H113        H  0.41681353  0.87275157  0.24304132     0.37700
H114        H  0.37393191  0.88278662  0.37162458     0.34200
H115        H  0.48127815  0.86522519  0.42506060     0.26000
H116        H  0.38457273  0.82328084  0.42395679     0.31900
H117        H  0.34261934  0.84276301  0.30200665     0.37800
H118        H  0.49611713  0.92843004  0.32368940     0.32300
H119        H  0.46456856  0.94909424  0.24339031     0.31100
H120        H  0.42988596  0.93189422  0.20601164     0.32800
H121        H  0.36696455  0.90593991  0.24516978     0.31800
H122        H  0.50431483  0.85923906  0.36817572     0.35800
H123        H  0.48831031  0.82525526  0.30345532     0.28500
H124        H  0.38328688  0.95449030  0.41625067     0.32700
H125        H  0.34613009  0.90365089  0.32625570     0.35600
H126        H  0.46571519  0.95464979  0.28482413     0.28200
H127        H  0.47402554  0.81116835  0.27410087     0.41100
H128        H  0.42143792  0.83919530  0.46175596     0.31100
H129        H  0.49868891  0.88655730  0.42775049     0.38800
H130        H  0.35370423  0.88226560  0.23724862     0.30600
H131        H  0.37121530  0.83261252  0.38979570     0.30700
H132        H  0.36573983  0.94758700  0.38506716     0.30900
Zr133      Zr  0.68602662  0.83293261  0.90906220     2.17500
O134        O  0.71213940  0.85971649  0.87677758    -0.51400
O135        O  0.70676037  0.80556866  0.86767070    -0.74600
O136        O  0.72244665  0.84160282  0.94359906    -0.81400
O137        O  0.63234486  0.85200316  0.85122937    -0.83200
O138        O  0.71949372  0.82426538  0.99865485    -0.78800
O139        O  0.67018723  0.86138370  0.86446238    -0.90400
O140        O  0.69590328  0.76831963  0.88201350    -0.76400
O141        O  0.69035583  0.79783179  0.94403132    -0.85900
O142        O  0.65849328  0.80510373  0.88521987    -0.85600
O143        O  0.67716832  0.84396760  0.97093613    -0.72300
O144        O  0.64760418  0.84976563  0.91748997    -0.84500
Zr145      Zr  0.61634192  0.79760588  0.98955623     2.26400
Zr146      Zr  0.68077633  0.80813109  0.00525257     2.06300
Zr147      Zr  0.62030974  0.82181115  0.89366504     2.10000
Zr148      Zr  0.66257098  0.77034866  0.92098596     1.78800
O149        O  0.58599267  0.84615720  0.88160153    -0.93300
O150        O  0.68635608  0.74178386  0.95379212    -0.41100
O151        O  0.62446868  0.78672203  0.92822137    -0.77700
O152        O  0.65393808  0.77929437  0.98250646    -0.96400
O153        O  0.64297127  0.82546314  0.01410789    -0.89700
O154        O  0.61103685  0.83244017  0.95470462    -0.92500
C155        C  0.70836612  0.78299084  0.86436480     1.01200
C156        C  0.65081066  0.86465983  0.84694807     1.14200
C157        C  0.73087522  0.83592155  0.97487365     1.04900
O158        O  0.70859576  0.77682782  0.01883434    -0.94700
O159        O  0.66697700  0.78543464  0.05688771    -0.90400
O160        O  0.62849864  0.77869364  0.04543644    -0.83600
C161        C  0.64703403  0.77627520  0.06481805     1.11600
O162        O  0.65404007  0.89841247  0.96173672    -0.96700
Zr163      Zr  0.63840869  0.86003062  0.97858803     1.88900
O164        O  0.59293260  0.82350337  0.02681348    -0.73300
O165        O  0.68923699  0.83071758  0.05971795    -0.52600
O166        O  0.65618290  0.87932748  0.03062656    -0.97200
O167        O  0.60907441  0.88784973  0.95654497    -0.54500
O168        O  0.60763127  0.86055969  0.02399020    -0.73800
C169        C  0.59311982  0.84522398  0.03607198     0.98500
O170        O  0.58976125  0.76633891  0.00900089    -0.62600
O171        O  0.61724419  0.80315660  0.83451249    -0.57400
O172        O  0.58144786  0.78649365  0.95700410    -0.94100
O173        O  0.58481623  0.79816826  0.89831952    -0.92600
O174        O  0.65223782  0.74936817  0.86574601    -0.92900
O175        O  0.63938296  0.73445725  0.92574254    -0.91700
C176        C  0.57416926  0.78766662  0.92431797     1.17400
H177        H  0.66134997  0.80214537  0.85987593     0.33300
H178        H  0.65495735  0.76473939  0.99590474     0.44200
H179        H  0.59505442  0.83800964  0.95642860     0.37700
H180        H  0.68799607  0.85573755  0.97965696     0.34200
H181        H  0.68614382  0.72746668  0.93852622     0.26000
H182        H  0.70401706  0.82391544  0.06919187     0.31900
H183        H  0.64568626  0.89278618  0.03596587     0.37800
H184        H  0.65164360  0.76153287  0.84660006     0.32300
H185        H  0.61072717  0.78731194  0.83941249     0.31100
H186        H  0.59085395  0.86233978  0.88806983     0.32800
H187        H  0.59370213  0.88004182  0.96000318     0.31800
H188        H  0.62706974  0.73818587  0.94375884     0.35800
H189        H  0.59950195  0.75193975  0.01077880     0.28500
H190        H  0.72736553  0.85139295  0.87493578     0.32700
H191        H  0.67125157  0.89613218  0.96055178     0.35600
H192        H  0.60436513  0.81171369  0.82223285     0.28200
H193        H  0.58524476  0.77015928  0.03419708     0.41100
H194        H  0.71839121  0.77541429  0.99683380     0.31100
H195        H  0.70261955  0.74774876  0.95174833     0.38800
H196        H  0.61133260  0.88821737  0.93000417     0.30600
H197        H  0.69368273  0.84657111  0.05093564     0.30700
H198        H  0.71505207  0.87295917  0.89361583     0.30900
Zr199      Zr  0.81752220  0.64198150  0.62575239     2.17500
O200        O  0.78516934  0.61956934  0.65184665    -0.51400
O201        O  0.79807850  0.67020710  0.66795077    -0.74600
O202        O  0.83047149  0.61527062  0.67466288    -0.81400
O203        O  0.78516132  0.64907650  0.53469380    -0.83200
O204        O  0.86888521  0.62244941  0.68681758    -0.78800
O205        O  0.78341713  0.63013683  0.58878165    -0.90400
O206        O  0.81600649  0.70566400  0.66341168    -0.76400
O207        O  0.84735724  0.66684119  0.64995133    -0.85900
O208        O  0.81453794  0.67830857  0.59344213    -0.85600
O209        O  0.85420665  0.62167243  0.61318609    -0.72300
O210        O  0.82487903  0.63316144  0.56270830    -0.84500
Zr211      Zr  0.88861191  0.67485939  0.54562958     2.26400
Zr212      Zr  0.88386446  0.64697058  0.63820161     2.06300
Zr213      Zr  0.82237588  0.66974714  0.53100498     2.10000
Zr214      Zr  0.84466995  0.70291444  0.61695398     1.78800
O215        O  0.81245579  0.65413603  0.47160138    -0.93300
O216        O  0.86491104  0.72078346  0.66814213    -0.41100
O217        O  0.85210128  0.69490614  0.55489408    -0.77700
O218        O  0.88145311  0.68423159  0.60782188    -0.96400
O219        O  0.89170825  0.63811335  0.57603028    -0.89700
O220        O  0.85911068  0.65070824  0.51909214    -0.92500
C221        C  0.80066998  0.69203240  0.67712164     1.01200
C222        C  0.77496769  0.63532645  0.55739624     1.14200
C223        C  0.84951250  0.61154074  0.69266208     1.04900
O224        O  0.89649778  0.66192377  0.69678644    -0.94700
O225        O  0.92267178  0.66508080  0.63447024    -0.90400
O226        O  0.92537251  0.68056370  0.57788855    -0.83600
C227        C  0.93345623  0.67673023  0.60971061     1.11600
O228        O  0.83680383  0.57953950  0.55445713    -0.96700
Zr229      Zr  0.86174063  0.61425035  0.55012605     1.88900
O230        O  0.91083727  0.64877488  0.50666310    -0.73300
O231        O  0.91056897  0.61346409  0.63911896    -0.52600
O232        O  0.88168444  0.57912670  0.57211531    -0.97200
O233        O  0.84622974  0.60207365  0.49156750    -0.54500
O234        O  0.89707190  0.61156928  0.51210330    -0.73800
C235        C  0.91181611  0.62672130  0.49959275     0.98500
O236        O  0.91236753  0.70765713  0.52356577    -0.62600
O237        O  0.79295805  0.70070227  0.52596973    -0.57400
O238        O  0.87758955  0.69824243  0.49378318    -0.94100
O239        O  0.83815481  0.69650582  0.48535091    -0.92600
O240        O  0.81616917  0.73147891  0.59485296    -0.92900
O241        O  0.86317006  0.74050038  0.60316445    -0.91700
C242        C  0.85873696  0.70408963  0.47707396     1.17400
H243        H  0.79917992  0.68526332  0.59640364     0.33300
H244        H  0.89275042  0.69541187  0.61684191     0.44200
H245        H  0.86170323  0.64896454  0.49341597     0.37700
H246        H  0.85483286  0.60623658  0.62399638     0.34200
H247        H  0.85382924  0.73267066  0.67776136     0.26000
H248        H  0.92059629  0.61606947  0.66061788     0.31900
H249        H  0.89818827  0.58405914  0.57564812     0.37800
H250        H  0.81109586  0.74037599  0.61651292     0.32300
H251        H  0.80189216  0.71554566  0.52862916     0.31100
H252        H  0.79880080  0.66356878  0.46355972     0.32800
H253        H  0.85717846  0.60855986  0.47331473     0.31800
H254        H  0.87163255  0.73775640  0.58015301     0.35800
H255        H  0.91489499  0.71816058  0.54459874     0.28500
H256        H  0.78593244  0.62227336  0.67828083     0.32700
H257        H  0.82739125  0.58207902  0.57664478     0.35600
H258        H  0.78814886  0.70047000  0.50023756     0.28200
H259        H  0.92802780  0.70112081  0.51772453     0.41100
H260        H  0.90890969  0.65088085  0.70479409     0.31100
H261        H  0.86530718  0.70830136  0.68683272     0.38800
H262        H  0.83163875  0.61132735  0.48851934     0.30600
H263        H  0.90065149  0.59978705  0.64561999     0.30700
H264        H  0.78951022  0.60284138  0.64854043     0.30900
Zr265      Zr  0.09641546  0.05220650  0.86879068     2.17500
O266        O  0.12824922  0.02658973  0.88867071    -0.51400
O267        O  0.07175722  0.02962603  0.91088194    -0.74600
O268        O  0.11993627  0.06726926  0.91964430    -0.81400
O269        O  0.08729998  0.01678896  0.78196964    -0.83200
O270        O  0.11204418  0.10601605  0.92870600    -0.78800
O271        O  0.10593479  0.01576954  0.83619692    -0.90400
O272        O  0.03439069  0.04323720  0.90688030    -0.76400
O273        O  0.06949917  0.07978538  0.89420233    -0.85900
O274        O  0.05988808  0.04623244  0.83846022    -0.85600
O275        O  0.11305543  0.09046307  0.85633474    -0.72300
O276        O  0.10412315  0.05930308  0.80549879    -0.84500
Zr277      Zr  0.05748423  0.11971103  0.78902050     2.26400
Zr278      Zr  0.08544403  0.11802245  0.88143126     2.06300
Zr279      Zr  0.06704329  0.05402613  0.77596303     2.10000
Zr280      Zr  0.03333452  0.07432195  0.86286857     1.78800
O281        O  0.08232784  0.04157280  0.71753929    -0.93300
O282        O  0.01942476  0.09340792  0.91791731    -0.41100
O283        O  0.03973918  0.08194977  0.79988076    -0.77700
O284        O  0.04869392  0.11245385  0.85145555    -0.96400
O285        O  0.09369794  0.12590783  0.81914762    -0.89700
O286        O  0.08367281  0.09185976  0.76306909    -0.92500
C287        C  0.04999015  0.02957597  0.92021531     1.01200
C288        C  0.10044331  0.00662715  0.80546656     1.14200
C289        C  0.12299029  0.08695855  0.93628905     1.04900
O290        O  0.06671356  0.12731809  0.93890590    -0.94700
O291        O  0.06455980  0.15525115  0.87600101    -0.90400
O292        O  0.04912819  0.15644030  0.81921021    -0.83600
C293        C  0.05268551  0.16513075  0.85069210     1.11600
O294        O  0.15645083  0.07585743  0.79806315    -0.96700
Zr295      Zr  0.11982402  0.09780047  0.79351575     1.88900
O296        O  0.08188634  0.14384468  0.75010804    -0.73300
O297        O  0.11526218  0.14852573  0.88783255    -0.52600
O298        O  0.15281455  0.12117744  0.81514143    -0.97200
O299        O  0.13143986  0.08661849  0.73241840    -0.54500
O300        O  0.12005528  0.13351725  0.75732299    -0.73800
C301        C  0.10382756  0.14631725  0.74349883     0.98500
O302        O  0.02437114  0.14456454  0.77158079    -0.62600
O303        O  0.03573258  0.02484184  0.77423551    -0.57400
O304        O  0.03795426  0.10692059  0.73459686    -0.94100
O305        O  0.04158222  0.06735798  0.72746409    -0.92600
O306        O  0.00280953  0.04637558  0.84598397    -0.92900
O307        O  0.99480119  0.09156396  0.85171157    -0.91700
C308        C  0.03378604  0.08762028  0.71796931     1.17400
H309        H  0.05423793  0.03033699  0.84175681     0.33300
H310        H  0.03688227  0.12313933  0.86038359     0.44200
H311        H  0.08526791  0.09429901  0.73732029     0.37700
H312        H  0.12829431  0.09214973  0.86737694     0.34200
H313        H  0.00394365  0.08616137  0.92281913     0.26000
H314        H  0.11748029  0.15493084  0.86316095     0.31900
H315        H  0.14855054  0.12581732  0.84008915     0.37800
H316        H  0.99312519  0.04445837  0.86804384     0.32300
H317        H  0.02104798  0.03414679  0.77509780     0.31100
H318        H  0.09951383  0.04379685  0.71947559     0.32800
H319        H  0.13603895  0.06984879  0.73410324     0.31800
H320        H  0.99787529  0.10832297  0.84607583     0.35800
H321        H  0.02762221  0.14982347  0.74652144     0.28500
H322        H  0.12578365  0.02369589  0.91481272     0.32700
H323        H  0.15529638  0.06736072  0.82138833     0.35600
H324        H  0.03626789  0.01841420  0.74935523     0.28200
H325        H  0.01061664  0.13397669  0.76970115     0.41100
H326        H  0.06627175  0.11221772  0.95227104     0.31100
H327        H  0.02969212  0.08727021  0.93736158     0.38800
H328        H  0.14632844  0.09515931  0.72805692     0.30600
H329        H  0.10749013  0.16140106  0.90134055     0.30700
H330        H  0.14285616  0.03598068  0.88695050     0.30900
Zr331      Zr  0.91430215  0.91668086  0.15649195     2.17500
O332        O  0.89137487  0.94347485  0.11896318    -0.51400
O333        O  0.94329860  0.93474337  0.11468615    -0.74600
O334        O  0.90541392  0.95389113  0.18866805    -0.81400
O335        O  0.89281858  0.86298097  0.10130635    -0.83200
O336        O  0.92201091  0.95228039  0.24433596    -0.78800
O337        O  0.88529058  0.90157624  0.11251093    -0.90400
O338        O  0.97947282  0.92058204  0.12769181    -0.76400
O339        O  0.94913284  0.92012807  0.19208915    -0.85900
O340        O  0.94065533  0.88716603  0.13477613    -0.85600
O341        O  0.90190626  0.90947492  0.21836841    -0.72300
O342        O  0.89536539  0.87935384  0.16679594    -0.84500
Zr343      Zr  0.94553959  0.84667077  0.24131548     2.26400
Zr344      Zr  0.93726854  0.91281457  0.25338076     2.06300
Zr345      Zr  0.92179503  0.85010537  0.14489435     2.10000
Zr346      Zr  0.97511599  0.89008519  0.17113457     1.78800
O347        O  0.89378059  0.81822837  0.13529252    -0.93300
O348        O  0.00675206  0.91488140  0.19405535    -0.41100
O349        O  0.95701860  0.85288438  0.17985974    -0.77700
O350        O  0.96470370  0.88384492  0.23268296    -0.96400
O351        O  0.91885355  0.87549647  0.26373914    -0.89700
O352        O  0.91076945  0.84216769  0.20621950    -0.92500
C353        C  0.96571028  0.93377323  0.10963459     1.01200
C354        C  0.88138103  0.88206476  0.09560580     1.14200
C355        C  0.91033351  0.96309178  0.21967553     1.04900
O356        O  0.96809621  0.94091709  0.26801389    -0.94700
O357        O  0.95985107  0.89833768  0.30482740    -0.90400
O358        O  0.96329340  0.85859498  0.29820829    -0.83600
C359        C  0.96691141  0.87794634  0.31526357     1.11600
O360        O  0.84726315  0.89019133  0.21336333    -0.96700
Zr361      Zr  0.88443341  0.87133156  0.22810714     1.88900
O362        O  0.91844507  0.82313492  0.27656428    -0.73300
O363        O  0.91439365  0.92318879  0.30674518    -0.52600
O364        O  0.86587296  0.88873132  0.28106459    -0.97200
O365        O  0.85517062  0.84451827  0.20316827    -0.54500
O366        O  0.88218009  0.83917664  0.27175754    -0.73800
C367        C  0.89655660  0.82389065  0.28457628     0.98500
O368        O  0.97739557  0.82443413  0.26936362    -0.62600
O369        O  0.93906434  0.84421817  0.08529969    -0.57400
O370        O  0.95679509  0.81158234  0.20745460    -0.94100
O371        O  0.94366099  0.81373055  0.14951056    -0.92600
O372        O  0.99069554  0.87039550  0.11776939    -0.92900
O373        O  0.01145238  0.86921529  0.18449475    -0.91700
C374        C  0.95461868  0.80335393  0.17525167     1.17400
H375        H  0.94404331  0.88911528  0.10934766     0.33300
H376        H  0.97908186  0.88453155  0.24643965     0.44200
H377        H  0.90445304  0.82646366  0.20846647     0.37700
H378        H  0.89036110  0.92084507  0.22611757     0.34200
H379        H  0.00299549  0.93101387  0.18573631     0.26000
H380        H  0.89830421  0.92596944  0.29757157     0.31900
H381        H  0.87647252  0.88484274  0.30142248     0.37800
H382        H  0.00316851  0.88096948  0.10862211     0.32300
H383        H  0.95610828  0.84259017  0.08983652     0.31100
H384        H  0.89869479  0.80534407  0.15166605     0.32800
H385        H  0.86180245  0.82853629  0.20630411     0.31800
H386        H  0.00939146  0.86313900  0.20939615     0.35800
H387        H  0.97127409  0.80829005  0.27303704     0.28500
H388        H  0.90000092  0.95860133  0.11916573     0.32700
H389        H  0.85021884  0.89827294  0.19006244     0.35600
H390        H  0.93392756  0.82825752  0.07799463     0.28200
H391        H  0.98973351  0.82290154  0.25063123     0.41100
H392        H  0.97446088  0.94590287  0.24430640     0.31100
H393        H  0.00434424  0.91543659  0.22055366     0.38800
H394        H  0.85566222  0.84728046  0.17673354     0.30600
H395        H  0.91320303  0.90842852  0.32087841     0.30700
H396        H  0.87674942  0.94650248  0.13265393     0.30900
Zr397      Zr  0.18480486  0.83008668  0.62028117     2.17500
O398        O  0.21066198  0.86298954  0.63498376    -0.51400
O399        O  0.20604739  0.80642037  0.66559903    -0.74600
O400        O  0.17040150  0.85405595  0.67094599    -0.81400
O401        O  0.21833922  0.82248400  0.53147016    -0.83200
O402        O  0.13249893  0.84404930  0.68266396    -0.78800
O403        O  0.22132552  0.83879616  0.58727301    -0.90400
O404        O  0.19126970  0.76926681  0.66411918    -0.76400
O405        O  0.15847975  0.80207801  0.64626006    -0.85900
O406        O  0.19114101  0.79410959  0.58836838    -0.85600
O407        O  0.14584425  0.84564102  0.61005157    -0.72300
O408        O  0.17568723  0.83816161  0.55774488    -0.84500
Zr409      Zr  0.11689030  0.78923810  0.54280174     2.26400
Zr410      Zr  0.11960391  0.81693746  0.63588821     2.06300
Zr411      Zr  0.18147747  0.80171689  0.52628284     2.10000
Zr412      Zr  0.16468332  0.76636306  0.61390777     1.78800
O413        O  0.18960520  0.82113469  0.46894202    -0.93300
O414        O  0.14465184  0.74656600  0.66359767    -0.41100
O415        O  0.15550995  0.77324657  0.55162316    -0.77700
O416        O  0.12582325  0.78038985  0.60483934    -0.96400
O417        O  0.10994118  0.82511452  0.57402095    -0.89700
O418        O  0.14285213  0.81699523  0.51595210    -0.92500
C419        C  0.20461631  0.78513092  0.67742723     1.01200
C420        C  0.22947069  0.83431384  0.55545742     1.14200
C421        C  0.15109482  0.85616970  0.68881238     1.04900
O422        O  0.11227362  0.79828116  0.69408583    -0.94700
O423        O  0.08286902  0.79469435  0.63230239    -0.90400
O424        O  0.08165588  0.77877300  0.57587510    -0.83600
C425        C  0.07329093  0.78189268  0.60767122     1.11600
O426        O  0.15324275  0.89197763  0.55321898    -0.96700
Zr427      Zr  0.13652655  0.85265504  0.54813632     1.88900
O428        O  0.09088620  0.81318257  0.50579336    -0.73300
O429        O  0.08832015  0.84566915  0.64450578    -0.52600
O430        O  0.11048319  0.88134544  0.57630706    -0.97200
O431        O  0.14942889  0.86937633  0.49077368    -0.54500
O432        O  0.10136868  0.85144456  0.51121941    -0.73800
C433        C  0.08809462  0.83511547  0.49882058     0.98500
O434        O  0.09632162  0.75503100  0.51836343    -0.62600
O435        O  0.21185647  0.77225679  0.51576796    -0.57400
O436        O  0.12943676  0.76814405  0.48949272    -0.94100
O437        O  0.16811928  0.77491747  0.47896389    -0.92600
O438        O  0.19786948  0.74089379  0.59996478    -0.92900
O439        O  0.15161234  0.72684690  0.59800789    -0.91700
C440        C  0.14834708  0.76525193  0.47125163     1.17400
H441        H  0.20720971  0.78899485  0.59112217     0.33300
H442        H  0.11595946  0.76796106  0.61396767     0.44200
H443        H  0.13973383  0.81880172  0.49041474     0.37700
H444        H  0.14377157  0.86086296  0.62111912     0.34200
H445        H  0.15668718  0.73617857  0.67450569     0.26000
H446        H  0.09613606  0.86118167  0.64248090     0.31900
H447        H  0.10200899  0.88887244  0.55598237     0.37800
H448        H  0.19547016  0.73604824  0.57452411     0.32300
H449        H  0.22241599  0.77314467  0.53696614     0.31100
H450        H  0.20209687  0.81145901  0.45770832     0.32800
H451        H  0.13941230  0.86192434  0.47212726     0.31800
H452        H  0.14610076  0.72813971  0.57268311     0.35800
H453        H  0.09498962  0.74363509  0.53854123     0.28500
H454        H  0.21438592  0.86138574  0.66103099     0.32700
H455        H  0.16281566  0.89145842  0.57556104     0.35600
H456        H  0.20376871  0.75693484  0.51842540     0.28200
H457        H  0.08005978  0.76027192  0.51334161     0.41100
H458        H  0.09784610  0.80597175  0.70323576     0.31100
H459        H  0.14208177  0.75903247  0.68188598     0.38800
H460        H  0.16520334  0.86255625  0.48674484     0.30600
H461        H  0.07854999  0.84450451  0.62242955     0.30700
H462        H  0.20080580  0.87730794  0.63314748     0.30900
Zr463      Zr  0.31804880  0.64693522  0.90951184     2.17500
O464        O  0.29115080  0.62289697  0.87391341    -0.51400
O465        O  0.29769240  0.67652876  0.87152340    -0.74600
O466        O  0.28240639  0.63672308  0.94443355    -0.81400
O467        O  0.37036212  0.62974690  0.84841903    -0.83200
O468        O  0.28579339  0.65125414  0.00145298    -0.78800
O469        O  0.33268445  0.61990560  0.86184992    -0.90400
O470        O  0.31278438  0.71255964  0.88356827    -0.76400
O471        O  0.31512866  0.68050664  0.94821010    -0.85900
O472        O  0.34613462  0.67488826  0.88799695    -0.85600
O473        O  0.32705415  0.63320053  0.97005852    -0.72300
O474        O  0.35581937  0.62859292  0.91544344    -0.84500
Zr475      Zr  0.38949660  0.67646895  0.99252275     2.26400
Zr476      Zr  0.32467236  0.66756822  0.00826635     2.06300
Zr477      Zr  0.38377613  0.65678549  0.89433271     2.10000
Zr478      Zr  0.34348313  0.70808491  0.92720534     1.78800
O479        O  0.41538678  0.63067699  0.87532821    -0.93300
O480        O  0.31490996  0.73481676  0.95407090    -0.41100
O481        O  0.38139755  0.69059201  0.93261583    -0.77700
O482        O  0.35234544  0.69611621  0.98747553    -0.96400
O483        O  0.36194337  0.64852484  0.01437225    -0.89700
O484        O  0.39333718  0.64312350  0.95396660    -0.92500
C485        C  0.29855294  0.69903307  0.86681665     1.01200
C486        C  0.35169996  0.61766461  0.84306404     1.14200
C487        C  0.27445103  0.64029282  0.97667234     1.04900
O488        O  0.29657559  0.69860726  0.02201216    -0.94700
O489        O  0.34017225  0.68891419  0.06076982    -0.90400
O490        O  0.37876874  0.69509591  0.04942707    -0.83600
C491        C  0.36037108  0.69747288  0.06920854     1.11600
O492        O  0.34854707  0.57757347  0.95793666    -0.96700
Zr493      Zr  0.36511315  0.61548471  0.97513822     1.88900
O494        O  0.41276090  0.64738656  0.02450059    -0.73300
O495        O  0.31649409  0.64493326  0.06279333    -0.52600
O496        O  0.34630661  0.59480535  0.02506352    -0.97200
O497        O  0.39260321  0.58912854  0.94483968    -0.54500
O498        O  0.39624922  0.61126803  0.01927187    -0.73800
C499        C  0.41176054  0.62535842  0.03186167     0.98500
O500        O  0.41585360  0.70291626  0.02522314    -0.62600
O501        O  0.38621023  0.67953276  0.83857924    -0.57400
O502        O  0.42316444  0.68942032  0.95788175    -0.94100
O503        O  0.42108715  0.67690661  0.89969320    -0.92600
O504        O  0.36125713  0.72926784  0.87688544    -0.92900
O505        O  0.36233360  0.74469091  0.94539849    -0.91700
C506        C  0.43127292  0.68779207  0.92566858     1.17400
H507        H  0.34333144  0.67902392  0.86303360     0.33300
H508        H  0.35183837  0.71022166  0.00199083     0.44200
H509        H  0.40908215  0.63680649  0.95451799     0.37700
H510        H  0.31623540  0.62117522  0.97786446     0.34200
H511        H  0.29960421  0.72672491  0.95149105     0.26000
H512        H  0.30249696  0.65255338  0.07353133     0.31900
H513        H  0.35724139  0.58188857  0.03135362     0.37800
H514        H  0.34947848  0.74123508  0.86980119     0.32300
H515        H  0.39022487  0.69568071  0.84647562     0.31100
H516        H  0.42243158  0.63846730  0.85396181     0.32800
H517        H  0.40790417  0.59170971  0.95689137     0.31800
H518        H  0.37625984  0.73964205  0.95943935     0.35800
H519        H  0.43155514  0.69542416  0.02464892     0.28500
H520        H  0.27560579  0.63057962  0.87593817     0.32700
H521        H  0.34462105  0.57928767  0.93197417     0.35600
H522        H  0.40053594  0.67372140  0.82633642     0.28200
H523        H  0.41732684  0.71729897  0.01023869     0.41100
H524        H  0.28729433  0.69245487  0.04258835     0.31100
H525        H  0.31817676  0.73439915  0.98035923     0.38800
H526        H  0.39462267  0.59596089  0.92039524     0.30600
H527        H  0.31078251  0.62949379  0.05401978     0.30700
H528        H  0.28966856  0.60789880  0.88737409     0.30900
Zr529      Zr  0.19315993  0.32812542  0.41506444     2.17500
O530        O  0.22308685  0.34951799  0.38107910    -0.51400
O531        O  0.21474234  0.29955104  0.37690621    -0.74600
O532        O  0.22653773  0.34009749  0.45392806    -0.81400
O533        O  0.14248535  0.34835889  0.35247086    -0.83200
O534        O  0.22126539  0.32434591  0.50970591    -0.78800
O535        O  0.17950451  0.35784463  0.37072940    -0.90400
O536        O  0.20238702  0.26290687  0.39139116    -0.76400
O537        O  0.19510324  0.29354662  0.45197709    -0.85900
O538        O  0.16602716  0.30064258  0.38913485    -0.85600
O539        O  0.18138277  0.34051216  0.47510809    -0.72300
O540        O  0.15479712  0.34547915  0.41816122    -0.84500
Zr541      Zr  0.11835458  0.29638800  0.48856732     2.26400
Zr542      Zr  0.18289478  0.30540710  0.51145794     2.06300
Zr543      Zr  0.12769433  0.31801899  0.39253313     2.10000
Zr544      Zr  0.16748755  0.26656845  0.42660050     1.78800
O545        O  0.09488340  0.34335881  0.37615645    -0.93300
O546        O  0.18916439  0.23519799  0.45684979    -0.41100
O547        O  0.12930216  0.28356710  0.42921429    -0.77700
O548        O  0.15602189  0.27725932  0.48637068    -0.96400
O549        O  0.14502460  0.32377963  0.51472648    -0.89700
O550        O  0.11567548  0.33053445  0.45167292    -0.92500
C551        C  0.21566064  0.27694805  0.37392328     1.01200
C552        C  0.16114031  0.36100338  0.35075424     1.14200
C553        C  0.23325526  0.33641557  0.48682404     1.04900
O554        O  0.21092335  0.27471345  0.52735006    -0.94700
O555        O  0.16508959  0.28188231  0.55978359    -0.90400
O556        O  0.12633583  0.27793715  0.54633118    -0.83600
C557        C  0.14426868  0.27421549  0.56638423     1.11600
O558        O  0.16153306  0.39563096  0.46622287    -0.96700
Zr559      Zr  0.14300259  0.35764642  0.47702496     1.88900
O560        O  0.09440024  0.32393146  0.52272931    -0.73300
O561        O  0.18927392  0.32672361  0.56779669    -0.52600
O562        O  0.15736686  0.37794347  0.53065280    -0.97200
O563        O  0.11936406  0.38574654  0.44301245    -0.54500
O564        O  0.10938719  0.36064411  0.51664378    -0.73800
C565        C  0.09449947  0.34606356  0.52966226     0.98500
O566        O  0.08966987  0.26643958  0.50573633    -0.62600
O567        O  0.12793119  0.29988144  0.33282282    -0.57400
O568        O  0.08488321  0.28521455  0.45191934    -0.94100
O569        O  0.09143928  0.29479864  0.39310450    -0.92600
O570        O  0.15473694  0.25044750  0.36879123    -0.92900
O571        O  0.14664973  0.22939113  0.43324738    -0.91700
C572        C  0.07903751  0.28545952  0.41843139     1.17400
H573        H  0.16998322  0.29707138  0.36432845     0.33300
H574        H  0.15594061  0.26278867  0.50004724     0.44200
H575        H  0.09988002  0.33672032  0.45133054     0.37700
H576        H  0.19133521  0.35272147  0.48474445     0.34200
H577        H  0.20102393  0.22974932  0.43915655     0.26000
H578        H  0.17383319  0.32673835  0.58009282     0.31900
H579        H  0.15510135  0.36658075  0.55065053     0.37800
H580        H  0.16672459  0.23852482  0.36240547     0.32300
H581        H  0.12625796  0.28281431  0.33755289     0.31100
H582        H  0.08943093  0.33734508  0.35247083     0.32800
H583        H  0.10806846  0.39219825  0.46078053     0.31800
H584        H  0.13789116  0.23097568  0.45625277     0.35800
H585        H  0.09871456  0.25182946  0.51019310     0.28500
H586        H  0.23797699  0.34094825  0.38532770     0.32700
H587        H  0.17672206  0.39176556  0.45463784     0.35600
H588        H  0.11278668  0.30452846  0.32180691     0.28200
H589        H  0.08348900  0.27122332  0.52967557     0.41100
H590        H  0.21256384  0.27576658  0.55396339     0.31100
H591        H  0.19837101  0.24325530  0.47585738     0.38800
H592        H  0.10968305  0.37610979  0.42645077     0.30600
H593        H  0.19916027  0.31610551  0.58260916     0.30700
H594        H  0.22506577  0.36473309  0.39379796     0.30900
Zr595      Zr  0.31657995  0.14356244  0.11915541     2.17500
O596        O  0.28697809  0.11621248  0.14128619    -0.51400
O597        O  0.29783169  0.16743280  0.16667716    -0.74600
O598        O  0.33202801  0.11672633  0.16612730    -0.81400
O599        O  0.28166911  0.15157501  0.03045507    -0.83200
O600        O  0.36999549  0.12649365  0.17744404    -0.78800
O601        O  0.28107743  0.13298677  0.08493935    -0.90400
O602        O  0.31354873  0.20415197  0.16486070    -0.76400
O603        O  0.34364031  0.17114905  0.14397575    -0.85900
O604        O  0.30991523  0.17992939  0.08810407    -0.85600
O605        O  0.35488632  0.12725422  0.10629834    -0.72300
O606        O  0.32346302  0.13636547  0.05564016    -0.84500
Zr607      Zr  0.38366456  0.18331020  0.03824005     2.26400
Zr608      Zr  0.38182415  0.15532529  0.13173280     2.06300
Zr609      Zr  0.31806632  0.17327204  0.02513496     2.10000
Zr610      Zr  0.33759446  0.20706546  0.11191305     1.78800
O611        O  0.31036735  0.15637843  0.96578854    -0.93300
O612        O  0.35944888  0.22785823  0.15870658    -0.41100
O613        O  0.34578740  0.20034966  0.04950209    -0.77700
O614        O  0.37605737  0.19214623  0.10080086    -0.96400
O615        O  0.38966254  0.14711243  0.06915980    -0.89700
O616        O  0.35595652  0.15682245  0.01232106    -0.92500
C617        C  0.30045623  0.18843811  0.17908372     1.01200
C618        C  0.27200639  0.13807881  0.05398463     1.14200
C619        C  0.35158600  0.11385842  0.18318430     1.04900
O620        O  0.38786321  0.17412346  0.19017338    -0.94700
O621        O  0.41871562  0.17717149  0.12745103    -0.90400
O622        O  0.42025986  0.19150189  0.07002336    -0.83600
C623        C  0.42884031  0.18863002  0.10181694     1.11600
O624        O  0.34286212  0.08322715  0.05757691    -0.96700
Zr625      Zr  0.36173343  0.12066696  0.04360501     1.88900
O626        O  0.40704252  0.15864407  0.99766134    -0.73300
O627        O  0.41377501  0.12727920  0.13950233    -0.52600
O628        O  0.38919180  0.09018568  0.06254821    -0.97200
O629        O  0.34490934  0.10416598  0.98855131    -0.54500
O630        O  0.39482499  0.12074222  0.00248773    -0.73800
C631        C  0.40830040  0.13667917  0.98946876     0.98500
O632        O  0.40516501  0.21712250  0.01443552    -0.62600
O633        O  0.28639314  0.20181842  0.01819682    -0.57400
O634        O  0.36995698  0.20678126  0.98756837    -0.94100
O635        O  0.33038337  0.20338121  0.98156285    -0.92600
O636        O  0.30361940  0.23124209  0.09693518    -0.92900
O637        O  0.34718687  0.24749754  0.09566408    -0.91700
C638        C  0.35036477  0.21219826  0.97254291     1.17400
H639        H  0.29398320  0.18522859  0.09185447     0.33300
H640        H  0.38648676  0.20425503  0.10952941     0.44200
H641        H  0.35840242  0.15516516  0.98658928     0.37700
H642        H  0.35730957  0.11171897  0.11617157     0.34200
H643        H  0.34802569  0.23901061  0.16939137     0.26000
H644        H  0.40693425  0.11193599  0.13239587     0.31900
H645        H  0.39065814  0.07962266  0.04135261     0.37800
H646        H  0.30373719  0.23225523  0.07019649     0.32300
H647        H  0.27927080  0.19804333  0.99446552     0.31100
H648        H  0.31289362  0.13926505  0.96900477     0.32800
H649        H  0.35193649  0.08827319  0.98652091     0.31800
H650        H  0.36374262  0.24683592  0.08757805     0.35800
H651        H  0.40732530  0.22800562  0.03510485     0.28500
H652        H  0.28748413  0.11711867  0.16801776     0.32700
H653        H  0.32998319  0.08730520  0.07444896     0.35600
H654        H  0.27428303  0.19728199  0.03609267     0.28200
H655        H  0.42109905  0.21132918  0.00846372     0.41100
H656        H  0.40009114  0.16446881  0.20210489     0.31100
H657        H  0.36203084  0.21595041  0.17785240     0.38800
H658        H  0.35216593  0.11319067  0.96855814     0.30600
H659        H  0.42503992  0.13096578  0.11990780     0.30700
H660        H  0.29317859  0.10043858  0.13515829     0.30900
Zr661      Zr  0.59776197  0.55373582  0.36726200     2.17500
O662        O  0.62456277  0.52428918  0.39192524    -0.51400
O663        O  0.57122648  0.53179245  0.40816387    -0.74600
O664        O  0.62291797  0.56758722  0.41691471    -0.81400
O665        O  0.59137727  0.52066745  0.27658103    -0.83200
O666        O  0.61418476  0.60567612  0.43013015    -0.78800
O667        O  0.60932573  0.51905371  0.33136754    -0.90400
O668        O  0.53380961  0.54433477  0.39951494    -0.76400
O669        O  0.57061056  0.58116112  0.39254962    -0.85900
O670        O  0.56210563  0.54884494  0.33428205    -0.85600
O671        O  0.61501921  0.59220045  0.35729987    -0.72300
O672        O  0.60711420  0.56229010  0.30483517    -0.84500
Zr673      Zr  0.56075535  0.62410445  0.28972057     2.26400
Zr674      Zr  0.58743810  0.61952982  0.38317360     2.06300
Zr675      Zr  0.57089367  0.55817246  0.27261576     2.10000
Zr676      Zr  0.53523736  0.57672041  0.35861496     1.78800
O677        O  0.58788852  0.54997607  0.21349375    -0.93300
O678        O  0.51932422  0.59340931  0.41419665    -0.41100
O679        O  0.54349040  0.58582215  0.29700281    -0.77700
O680        O  0.55098802  0.61495382  0.35131043    -0.96400
O681        O  0.59667817  0.62897448  0.32152444    -0.89700
O682        O  0.58726095  0.59663069  0.26287853    -0.92500
C683        C  0.54895090  0.53086417  0.41421306     1.01200
C684        C  0.60454927  0.51038507  0.29998242     1.14200
C685        C  0.62581094  0.58658080  0.43536911     1.04900
O686        O  0.57152077  0.62839234  0.44275323    -0.94700
O687        O  0.56488577  0.65628777  0.38151686    -0.90400
O688        O  0.54937464  0.65873407  0.32490759    -0.83600
C689        C  0.55228792  0.66650816  0.35723463     1.11600
O690        O  0.66121131  0.58415732  0.30891641    -0.96700
Zr691      Zr  0.62291932  0.60103703  0.29529274     1.88900
O692        O  0.58655192  0.64975828  0.25531125    -0.73300
O693        O  0.61710583  0.65029386  0.38699307    -0.52600
O694        O  0.65273099  0.62873371  0.31580501    -0.97200
O695        O  0.64003682  0.58309855  0.24152371    -0.54500
O696        O  0.62306094  0.63389028  0.25312267    -0.73800
C697        C  0.60798406  0.64975531  0.24483473     0.98500
O698        O  0.53047981  0.64791648  0.26059631    -0.62600
O699        O  0.54127848  0.52746238  0.26620098    -0.57400
O700        O  0.53808496  0.61130878  0.23784329    -0.94100
O701        O  0.54400174  0.57252735  0.22659271    -0.92600
O702        O  0.50493600  0.55121429  0.33364527    -0.92900
O703        O  0.49726721  0.59526128  0.34842867    -0.91700
C704        C  0.53431191  0.59241690  0.21967549     1.17400
H705        H  0.55633044  0.53289116  0.33634330     0.33300
H706        H  0.53864192  0.62473016  0.36079773     0.44200
H707        H  0.58922162  0.59977888  0.23737789     0.37700
H708        H  0.63030400  0.59382076  0.36819986     0.34200
H709        H  0.50773082  0.58169920  0.42282493     0.26000
H710        H  0.61761759  0.65460401  0.41292793     0.31900
H711        H  0.64489826  0.64429868  0.31565874     0.37800
H712        H  0.51321575  0.53664261  0.32643276     0.32300
H713        H  0.52679497  0.53566941  0.25845511     0.31100
H714        H  0.60459742  0.54640010  0.21837753     0.32800
H715        H  0.65280595  0.59396598  0.23434653     0.31800
H716        H  0.50016824  0.60685050  0.32891568     0.35800
H717        H  0.51752998  0.64926165  0.27835488     0.28500
H718        H  0.62098964  0.52310891  0.41807962     0.32700
H719        H  0.65804664  0.56724913  0.31327495     0.35600
H720        H  0.54625169  0.51835018  0.24469519     0.28200
H721        H  0.53708746  0.66398655  0.25849417     0.41100
H722        H  0.58172128  0.64106303  0.45231602     0.31100
H723        H  0.53231830  0.59250727  0.43192686     0.38800
H724        H  0.62806224  0.58497061  0.22235407     0.30600
H725        H  0.63214482  0.64203162  0.38265545     0.30700
H726        H  0.64050222  0.53120564  0.39053143     0.30900
Zr727      Zr  0.41601936  0.42745835  0.66215732     2.17500
O728        O  0.39449360  0.45559955  0.62481913    -0.51400
O729        O  0.44377626  0.44137717  0.61513461    -0.74600
O730        O  0.40968845  0.46552910  0.69269284    -0.81400
O731        O  0.38979697  0.37458847  0.61199380    -0.83200
O732        O  0.42831386  0.46524116  0.74689809    -0.78800
O733        O  0.38400107  0.41354196  0.62305721    -0.90400
O734        O  0.47900384  0.42356588  0.62265730    -0.76400
O735        O  0.45240073  0.43045700  0.69382503    -0.85900
O736        O  0.43957000  0.39554239  0.64088903    -0.85600
O737        O  0.40626404  0.42321347  0.72568324    -0.72300
O738        O  0.39505433  0.39197919  0.67737441    -0.84500
Zr739      Zr  0.44594794  0.35885804  0.75039016     2.26400
Zr740      Zr  0.44320855  0.42578869  0.75674455     2.06300
Zr741      Zr  0.41868693  0.36034705  0.65568347     2.10000
Zr742      Zr  0.47561057  0.39812192  0.67371130     1.78800
O743        O  0.38801655  0.33050107  0.65355344    -0.93300
O744        O  0.50399508  0.42805728  0.69150316    -0.41100
O745        O  0.45516383  0.36271009  0.68748289    -0.77700
O746        O  0.46753737  0.39405979  0.73658140    -0.96400
O747        O  0.42253873  0.39041353  0.77239324    -0.89700
O748        O  0.40969112  0.35535777  0.71861895    -0.92500
C749        C  0.46524834  0.43741894  0.60576191     1.01200
C750        C  0.37893383  0.39415564  0.60674913     1.14200
C751        C  0.41581827  0.47540730  0.72264173     1.04900
O752        O  0.47790373  0.45074100  0.75990774    -0.94700
O753        O  0.46603562  0.41176629  0.80828604    -0.90400
O754        O  0.46671039  0.37182952  0.80418389    -0.83600
C755        C  0.47230218  0.39130495  0.81958548     1.11600
O756        O  0.35133085  0.41049131  0.72968483    -0.96700
Zr757      Zr  0.38650635  0.38715194  0.74050640     1.88900
O758        O  0.41862233  0.33848779  0.79025417    -0.73300
O759        O  0.42526233  0.44227527  0.81089735    -0.52600
O760        O  0.37464207  0.40673800  0.79617480    -0.97200
O761        O  0.35234548  0.36481495  0.72071187    -0.54500
O762        O  0.38269145  0.35526280  0.78443541    -0.73800
C763        C  0.39677834  0.34010716  0.79838732     0.98500
O764        O  0.47712010  0.33560466  0.77838124    -0.62600
O765        O  0.43373123  0.34884651  0.59650003    -0.57400
O766        O  0.45461421  0.32232076  0.71863273    -0.94100
O767        O  0.43999927  0.32348086  0.66143016    -0.92600
O768        O  0.49398728  0.37511398  0.62590161    -0.92900
O769        O  0.51180903  0.37789693  0.69007401    -0.91700
C770        C  0.45159014  0.31352870  0.68699579     1.17400
H771        H  0.44197882  0.39619134  0.61506657     0.33300
H772        H  0.48247839  0.39415386  0.74890619     0.44200
H773        H  0.40237586  0.34024318  0.72266695     0.37700
H774        H  0.39563093  0.43532598  0.73380897     0.34200
H775        H  0.50916327  0.42347400  0.71608318     0.26000
H776        H  0.42109956  0.42845868  0.82591262     0.31900
H777        H  0.35897648  0.40013552  0.80181321     0.37800
H778        H  0.48414146  0.36081695  0.62378642     0.32300
H779        H  0.42282677  0.33644770  0.58802552     0.31100
H780        H  0.39407901  0.31832568  0.63682121     0.32800
H781        H  0.34342861  0.36151312  0.74314305     0.31800
H782        H  0.50655790  0.36276543  0.70065126     0.35800
H783        H  0.47014216  0.32005745  0.78394375     0.28500
H784        H  0.40481144  0.46956010  0.62261992     0.32700
H785        H  0.35500006  0.41981914  0.70776577     0.35600
H786        H  0.43063921  0.36239262  0.58034374     0.28200
H787        H  0.48885846  0.33259848  0.75916034     0.41100
H788        H  0.47532804  0.46077868  0.78143676     0.31100
H789        H  0.51784845  0.42520743  0.67593412     0.38800
H790        H  0.35865224  0.34931695  0.71326309     0.30600
H791        H  0.43832192  0.44995973  0.82404978     0.30700
H792        H  0.38103961  0.46094698  0.63966542     0.30900
Zr793      Zr  0.82158579  0.14257081  0.40592297     2.17500
O794        O  0.79609680  0.11506399  0.37406028    -0.51400
O795        O  0.79880076  0.16998123  0.36775173    -0.74600
O796        O  0.78566481  0.13386171  0.44168115    -0.81400
O797        O  0.87440020  0.12186574  0.34794316    -0.83200
O798        O  0.78830643  0.15349159  0.49488893    -0.78800
O799        O  0.83606089  0.11411276  0.36026878    -0.90400
O800        O  0.81363217  0.20669045  0.37457187    -0.76400
O801        O  0.81851118  0.17912811  0.43740888    -0.85900
O802        O  0.85027183  0.16847929  0.38008949    -0.85600
O803        O  0.82979755  0.13339236  0.46849176    -0.72300
O804        O  0.85946019  0.12480670  0.41577275    -0.84500
Zr805      Zr  0.89246507  0.17859111  0.48363065     2.26400
Zr806      Zr  0.82707888  0.17054059  0.49944180     2.06300
Zr807      Zr  0.88801825  0.15099252  0.39041450     2.10000
Zr808      Zr  0.84744516  0.20467222  0.41234705     1.78800
O809        O  0.92058052  0.12342718  0.38416688    -0.93300
O810        O  0.82416929  0.23638783  0.43852851    -0.41100
O811        O  0.88501094  0.18753096  0.42141048    -0.77700
O812        O  0.85522398  0.19749937  0.47463532    -0.96400
O813        O  0.86449513  0.15264645  0.51000159    -0.89700
O814        O  0.89655762  0.14206827  0.45235387    -0.92500
C815        C  0.79867021  0.19230836  0.36147475     1.01200
C816        C  0.85542113  0.11020691  0.34304560     1.14200
C817        C  0.77724632  0.14011076  0.47270231     1.04900
O818        O  0.79846774  0.20180361  0.50880164    -0.94700
O819        O  0.84163589  0.19556385  0.54793697    -0.90400
O820        O  0.88077794  0.19974272  0.53812813    -0.83600
C821        C  0.86192526  0.20383882  0.55611914     1.11600
O822        O  0.85095124  0.07789766  0.46602816    -0.96700
Zr823      Zr  0.86776937  0.11655915  0.47789807     1.88900
O824        O  0.91446916  0.15319741  0.52359918    -0.73300
O825        O  0.81819781  0.15032073  0.55593152    -0.52600
O826        O  0.84758534  0.10179040  0.53140843    -0.97200
O827        O  0.89385552  0.08486243  0.45884038    -0.54500
O828        O  0.89849604  0.11664249  0.52301351    -0.73800
C829        C  0.91334083  0.13183996  0.53444008     0.98500
O830        O  0.92028151  0.20912001  0.50162191    -0.62600
O831        O  0.89321432  0.16528503  0.32884024    -0.57400
O832        O  0.92756708  0.18823658  0.44910402    -0.94100
O833        O  0.92414748  0.17418242  0.39176819    -0.92600
O834        O  0.85992074  0.21988793  0.35381863    -0.92900
O835        O  0.87109485  0.24024877  0.41797387    -0.91700
C836        C  0.93503999  0.18573295  0.41653437     1.17400
H837        H  0.84749290  0.17070657  0.35453476     0.33300
H838        H  0.85459816  0.21260023  0.48656925     0.44200
H839        H  0.91220958  0.13572924  0.45487729     0.37700
H840        H  0.81895657  0.12203010  0.47832404     0.34200
H841        H  0.82452838  0.24912025  0.42023729     0.26000
H842        H  0.83304968  0.15059897  0.56983503     0.31900
H843        H  0.85408488  0.11103966  0.55177366     0.37800
H844        H  0.87725640  0.21871256  0.35409918     0.32300
H845        H  0.89506129  0.18252755  0.33130512     0.31100
H846        H  0.91329021  0.10805934  0.37841799     0.32800
H847        H  0.90774887  0.08578730  0.47484348     0.31800
H848        H  0.88567632  0.23507030  0.43020394     0.40600
H849        H  0.91110085  0.22389149  0.50325137     0.28500
H850        H  0.78076310  0.12313470  0.37192762     0.32700
H851        H  0.83406356  0.08088901  0.46167761     0.35600
H852        H  0.90895642  0.15958075  0.32162003     0.28200
H853        H  0.92488358  0.20538376  0.52680903     0.41100
H854        H  0.79045078  0.19759084  0.53167101     0.31100
H855        H  0.80779422  0.23055827  0.43797084     0.38800
H856        H  0.89971596  0.08984774  0.43485033     0.30600
H857        H  0.80766129  0.16119394  0.56914828     0.30700
H858        H  0.79341602  0.10192705  0.39116914     0.30900
Zr859      Zr  0.68713603  0.32709522  0.12387847     2.17500
O860        O  0.71751093  0.35193979  0.15043064    -0.51400
O861        O  0.70511336  0.29952820  0.16712299    -0.74600
O862        O  0.67292337  0.35284451  0.17326938    -0.81400
O863        O  0.72146270  0.31989668  0.03371680    -0.83200
O864        O  0.63449765  0.34485153  0.18421000    -0.78800
O865        O  0.72298044  0.33743391  0.08885940    -0.90400
O866        O  0.68498438  0.26500634  0.16612132    -0.76400
O867        O  0.65789507  0.30071500  0.14659541    -0.85900
O868        O  0.69125352  0.29123936  0.09054266    -0.85600
O869        O  0.64978627  0.34616929  0.11283749    -0.72300
O870        O  0.68067587  0.33687305  0.06117421    -0.84500
Zr871      Zr  0.61769482  0.29434585  0.04073881     2.26400
Zr872      Zr  0.62070698  0.31931618  0.13573386     2.06300
Zr873      Zr  0.68376344  0.30065022  0.02833821     2.10000
Zr874      Zr  0.66152898  0.26536091  0.11222894     1.78800
O875        O  0.69864389  0.31677150  0.97178715    -0.93300
O876        O  0.63775995  0.24301586  0.15503180    -0.41100
O877        O  0.65430985  0.27438832  0.05006204    -0.77700
O878        O  0.62416737  0.28317843  0.10255082    -0.96400
O879        O  0.61378147  0.32991861  0.07405820    -0.89700
O880        O  0.64710085  0.31993440  0.01737557    -0.92500
C881        C  0.70049587  0.27879364  0.17923844     1.01200
C882        C  0.73183011  0.33268931  0.05744270     1.14200
C883        C  0.65357602  0.35611225  0.19079251     1.04900
O884        O  0.61075334  0.30024299  0.19272340    -0.94700
O885        O  0.58195240  0.30125118  0.12776957    -0.90400
O886        O  0.57973967  0.28866495  0.06945870    -0.83600
C887        C  0.57105318  0.29145198  0.10119457     1.11600
O888        O  0.66828269  0.38944152  0.06236092    -0.96700
Zr889      Zr  0.64342453  0.35531203  0.05090538     1.88900
O890        O  0.59515997  0.32140870  0.00366935    -0.73300
O891        O  0.59144444  0.35018357  0.14347333    -0.52600
O892        O  0.62194509  0.38872270  0.07562349    -0.97200
O893        O  0.65636938  0.37035380  0.99252800    -0.54500
O894        O  0.60790132  0.35857854  0.01516080    -0.73800
C895        C  0.59394164  0.34383532  0.00012117     0.98500
O896        O  0.59690893  0.25948884  0.01912714    -0.62600
O897        O  0.70942964  0.26637417  0.02495086    -0.57400
O898        O  0.62843509  0.27702685  0.98331016    -0.94100
O899        O  0.66798369  0.27959119  0.97619281    -0.92600
O900        O  0.69415381  0.23979848  0.09568247    -0.92900
O901        O  0.64880325  0.22650642  0.09244381    -0.91700
C902        C  0.64741770  0.27331164  0.96558967     1.17400
H903        H  0.70678000  0.28473875  0.09380712     0.33300
H904        H  0.61263510  0.27176960  0.11017140     0.44200
H905        H  0.64476952  0.32281949  0.99187598     0.37700
H906        H  0.64843172  0.36146652  0.12390310     0.34200
H907        H  0.64911224  0.23568878  0.17189818     0.26000
H908        H  0.58545146  0.34794922  0.16838288     0.31900
H909        H  0.62056025  0.39993216  0.05521420     0.37800
H910        H  0.69617690  0.22914880  0.11666028     0.32300
H911        H  0.71130638  0.26332670  0.99874411     0.31100
H912        H  0.68565364  0.32656642  0.96229530     0.32800
H913        H  0.67368717  0.36891776  0.99309692     0.31800
H914        H  0.63661783  0.22966073  0.07396641     0.35800
H915        H  0.59317297  0.25008521  0.04094476     0.28500
H916        H  0.71751160  0.34843170  0.17666928     0.32700
H917        H  0.67976006  0.38402699  0.08069284     0.35600
H918        H  0.72502022  0.27211388  0.03283894     0.28200
H919        H  0.58157383  0.26519867  0.01003467     0.41100
H920        H  0.62603059  0.29578015  0.20350036     0.31100
H921        H  0.62961099  0.25507539  0.16972003     0.38800
H922        H  0.65332140  0.38750730  0.99352453     0.30600
H923        H  0.60053209  0.36502955  0.14451932     0.30700
H924        H  0.71165645  0.36831201  0.14840304     0.30900
Zr925      Zr  0.09576496  0.54800570  0.16082872     2.17500
O926        O  0.12158929  0.51999200  0.13041826    -0.51400
O927        O  0.06841145  0.52684771  0.12025397    -0.74600
O928        O  0.10462023  0.51325916  0.19840705    -0.81400
O929        O  0.11551481  0.59934018  0.09918891    -0.83200
O930        O  0.08835341  0.51790385  0.25403781    -0.78800
O931        O  0.12528423  0.56225876  0.11669938    -0.90400
O932        O  0.03135411  0.53850319  0.13392040    -0.76400
O933        O  0.06074672  0.54551006  0.19637949    -0.85900
O934        O  0.06868799  0.57528910  0.13471898    -0.85600
O935        O  0.10667378  0.55871906  0.22201595    -0.72300
O936        O  0.11339215  0.58610614  0.16659173    -0.84500
Zr937      Zr  0.06225408  0.62165491  0.23645386     2.26400
Zr938      Zr  0.07103209  0.55688661  0.25698422     2.06300
Zr939      Zr  0.08623642  0.61334931  0.14085605     2.10000
Zr940      Zr  0.03406887  0.57316957  0.17068723     1.78800
O941        O  0.11363381  0.64518547  0.12810337    -0.93300
O942        O  0.00380555  0.54986884  0.20045171    -0.41100
O943        O  0.05114221  0.61136051  0.17579577    -0.77700
O944        O  0.04330348  0.58386968  0.23135985    -0.96400
O945        O  0.08925808  0.59479291  0.26302147    -0.89700
O946        O  0.09703632  0.62467406  0.20105524    -0.92500
C947        C  0.04591577  0.52548417  0.11693974     1.01200
C948        C  0.12849230  0.58097266  0.09740648     1.14200
C949        C  0.10002697  0.50597712  0.23067726     1.04900
O950        O  0.04009660  0.52873408  0.27087676    -0.94700
O951        O  0.04657400  0.57333008  0.30551378    -0.90400
O952        O  0.03953379  0.61141449  0.29038198    -0.83600
C953        C  0.03649331  0.59332904  0.31079800     1.11600
O954        O  0.16204759  0.57855916  0.22043175    -0.96700
Zr955      Zr  0.12373976  0.59714083  0.22678040     1.88900
O956        O  0.08958671  0.64526840  0.27217705    -0.73300
O957        O  0.09230161  0.54919099  0.31292982    -0.52600
O958        O  0.13985312  0.58210553  0.28325818    -0.97200
O959        O  0.15373108  0.61985318  0.19520755    -0.54500
O960        O  0.12663083  0.63224644  0.26353572    -0.73800
C961        C  0.11184023  0.64649909  0.27761972     0.98500
O962        O  0.03530695  0.65262371  0.25584530    -0.62600
O963        O  0.06796664  0.61693823  0.08143709    -0.57400
O964        O  0.05119044  0.65456985  0.19823261    -0.94100
O965        O  0.06462004  0.64987446  0.14070981    -0.92600
O966        O  0.01662558  0.58549540  0.11359629    -0.92900
O967        O  0.99770146  0.59531008  0.17725533    -0.91700
C968        C  0.05347297  0.66117006  0.16523964     1.17400
H969        H  0.06555881  0.57173241  0.10962837     0.33300
H970        H  0.02845741  0.58335029  0.24387533     0.44200
H971        H  0.10322540  0.64053928  0.20122999     0.37700
H972        H  0.11839590  0.54818552  0.23167477     0.34200
H973        H  0.99187117  0.54700077  0.18148254     0.26000
H974        H  0.09073239  0.56380327  0.32732860     0.31900
H975        H  0.13030438  0.58956394  0.30247415     0.37800
H976        H  0.00404646  0.57387121  0.10880630     0.32300
H977        H  0.07344929  0.60315260  0.06739386     0.31100
H978        H  0.10856809  0.65147197  0.10436808     0.32800
H979        H  0.14880793  0.63648492  0.19777762     0.31800
H980        H  0.00111326  0.60707366  0.19631019     0.35800
H981        H  0.01952771  0.64531444  0.25651136     0.28500
H982        H  0.11284687  0.50493109  0.12977390     0.32700
H983        H  0.15866666  0.56275259  0.21041710     0.35600
H984        H  0.05108690  0.61391261  0.08573563     0.28200
H985        H  0.03925824  0.65602869  0.28140077     0.41100
H986        H  0.02534894  0.53790746  0.26942123     0.31100
H987        H  0.01115816  0.53429993  0.20449987     0.38800
H988        H  0.15130587  0.61627240  0.16925853     0.30600
H989        H  0.08253516  0.53748873  0.32589175     0.30700
H990        H  0.13482273  0.51720335  0.14726506     0.30900
Zr991      Zr  0.91061589  0.41862140  0.87060435     2.17500
O992        O  0.88458713  0.44944957  0.89308710    -0.51400
O993        O  0.93588083  0.43613154  0.91764961    -0.74600
O994        O  0.88353761  0.40426882  0.91799904    -0.81400
O995        O  0.91998135  0.45373627  0.78212349    -0.83200
O996        O  0.89344247  0.36641746  0.93008341    -0.78800
O997        O  0.90162446  0.45472086  0.83661822    -0.90400
O998        O  0.97265155  0.42139729  0.91171797    -0.76400
O999        O  0.93686700  0.38984660  0.89443152    -0.85900
O1000       O  0.94709876  0.42368470  0.83941783    -0.85600
O1001       O  0.89201878  0.38141926  0.85677972    -0.72300
O1002       O  0.90299557  0.41225756  0.80708774    -0.84500
Zr1003     Zr  0.94732032  0.35036083  0.78893505     2.26400
Zr1004     Zr  0.91856993  0.35277807  0.88139226     2.06300
Zr1005     Zr  0.93985269  0.41634706  0.77649591     2.10000
Zr1006     Zr  0.97299383  0.39443446  0.86228475     1.78800
O1007       O  0.92365557  0.42882178  0.71863783    -0.93300
O1008       O  0.99227588  0.37346800  0.91157202    -0.41100
O1009       O  0.96621883  0.38735028  0.79961430    -0.77700
O1010       O  0.95582989  0.35689378  0.85173390    -0.96400
O1011       O  0.91073178  0.34563736  0.81880132    -0.89700
O1012       O  0.92210364  0.37912106  0.76296546    -0.92500
C1013       C  0.95756350  0.43455669  0.92724243     1.01200
C1014       C  0.90706494  0.46388882  0.80583352     1.14200
C1015       C  0.88120029  0.38495770  0.93605573     1.04900
O1016       O  0.93494855  0.34019524  0.93905315    -0.94700
O1017       O  0.93650485  0.31409841  0.87522440    -0.90400
O1018       O  0.95375858  0.31349196  0.81971580    -0.83600
C1019       C  0.94853403  0.30410234  0.85017274     1.11600
O1020       O  0.84943505  0.39724428  0.79865714    -0.96700
Zr1021     Zr  0.88570064  0.37481343  0.79355393     1.88900
O1022       O  0.92256772  0.32819791  0.74781401    -0.73300
O1023       O  0.88584436  0.32519012  0.88508329    -0.52600
O1024       O  0.85190014  0.35129310  0.81167439    -0.97200
O1025       O  0.87344160  0.39082420  0.73536158    -0.54500
O1026       O  0.88475237  0.33937033  0.75680266    -0.73800
C1027       C  0.90044121  0.32615459  0.74246864     0.98500
O1028       O  0.97864248  0.32314681  0.77188671    -0.62600
O1029       O  0.97221316  0.44436440  0.77478603    -0.57400
O1030       O  0.97050255  0.36365103  0.73799953    -0.94100
O1031       O  0.96536153  0.40267598  0.72793518    -0.92600
O1032       O  0.00071005  0.42488386  0.84388597    -0.92900
O1033       O  0.01166030  0.37923505  0.84655374    -0.91700
C1034       C  0.97453855  0.38263575  0.72030404     1.17400
H1035       H  0.95318233  0.43937143  0.84317904     0.33300
H1036       H  0.96708109  0.34563802  0.86080459     0.44200
H1037       H  0.92061040  0.37683893  0.73717590     0.37700
H1038       H  0.87661271  0.37994978  0.86728770     0.34200
H1039       H  0.00599651  0.38333017  0.91797493     0.26000
H1040       H  0.87191564  0.33495742  0.89068832     0.31900
H1041       H  0.85008744  0.35390762  0.83798300     0.37800
H1042       H  0.99615300  0.43920987  0.85742132     0.32300
H1043       H  0.98648177  0.43454613  0.77222611     0.31100
H1044       H  0.93509854  0.44038320  0.70910863     0.32800
H1045       H  0.88042823  0.38032793  0.71689337     0.31800
H1046       H  0.00851311  0.36641780  0.82906227     0.35800
H1047       H  0.97667352  0.32000179  0.74571007     0.28500
H1048       H  0.88682412  0.44974892  0.91964661     0.32700
H1049       H  0.85028726  0.40472062  0.82281708     0.35600
H1050       H  0.97061051  0.45239502  0.75114768     0.28200
H1051       H  0.99344858  0.33218005  0.77397380     0.41100
H1052       H  0.95186290  0.34398699  0.93732902     0.31100
H1053       H  0.98151340  0.37522258  0.93241431     0.38800
H1054       H  0.88216508  0.40581565  0.73298703     0.30600
H1055       H  0.88319541  0.31977423  0.85996289     0.30700
H1056       H  0.86844136  0.44343202  0.88943770     0.30900
C1057       C  0.00320725  0.48216775  0.07531198    -0.22600
C1058       C  0.00824965  0.48463856  0.03846727     0.09400
C1059       C  0.02776720  0.49832895  0.02770712     0.09800
C1060       C  0.04100489  0.51035319  0.05410244    -0.17500
C1061       C  0.03527927  0.50868391  0.09097896    -0.27900
C1062       C  0.01662126  0.49373868  0.10169047     0.18100
C1063       C  0.99351707  0.47166105  0.01193130     0.12100
C1064       C  0.03461572  0.50013420  0.98845855    -0.12200
H1065       H  0.05525204  0.52179808  0.04582806     0.12400
C1066       C  0.01102901  0.48957419  0.14102544    -0.23100
H1067       H  0.98860774  0.47112357  0.08343544     0.08000
C1068       C  0.99585439  0.44714033  0.00767526     0.04400
C1069       C  0.98226641  0.43555456  0.98165118    -0.20300
C1070       C  0.96672150  0.44783406  0.95880589    -0.12600
C1071       C  0.96381042  0.47242208  0.96382373     0.13100
C1072       C  0.97708295  0.48392274  0.99072668    -0.23000
C1073       C  0.01344080  0.43328847  0.02950350    -0.06100
H1074       H  0.98456424  0.41674400  0.97801289     0.14600
C1075       C  0.94809709  0.48744439  0.94047785    -0.16300
H1076       H  0.97518045  0.50276868  0.99438296     0.08900
H1077       H  0.99706718  0.47610777  0.14447734     0.06800
H1078       H  0.00472923  0.50601524  0.15385306     0.08000
H1079       H  0.02697730  0.48322742  0.15528429     0.07000
H1080       H  0.02008123  0.50810096  0.97265368     0.01900
H1081       H  0.03844984  0.48230080  0.97764317     0.02400
H1082       H  0.05049476  0.51121304  0.98470935     0.05900
H1083       H  0.01358398  0.41438491  0.02181554     0.04900
H1084       H  0.00910244  0.43439717  0.05870291    -0.00900
H1085       H  0.03133014  0.44046759  0.02495427     0.00600
H1086       H  0.93440880  0.49577844  0.95760217     0.04300
H1087       H  0.93921321  0.47766953  0.91860336     0.06200
H1088       H  0.95868765  0.50151751  0.92750311     0.07100
C1089       C  0.78520134  0.37360645  0.04335230    -0.22600
C1090       C  0.79810302  0.36090387  0.01756359     0.09400
C1091       C  0.78974174  0.33866182  0.00636972     0.09800
C1092       C  0.76872634  0.32974945  0.02096729    -0.17500
C1093       C  0.75538585  0.34247552  0.04652436    -0.27900
C1094       C  0.76397190  0.36478638  0.05784929     0.18100
C1095       C  0.82003706  0.37109528  0.00163919     0.12100
C1096       C  0.80267025  0.32455899  0.97810839    -0.12200
H1097       H  0.76249547  0.31272894  0.01183078     0.12400
C1098       C  0.75057220  0.37986697  0.08414220    -0.23100
H1099       H  0.79165738  0.39068190  0.05183804     0.08000
C1100       C  0.81933656  0.38823472  0.97394037     0.04400
C1101       C  0.84004390  0.39393391  0.95494895    -0.20300
C1102       C  0.86152039  0.38272648  0.96268557    -0.12600
C1103       C  0.86249572  0.36708592  0.99267345     0.13100
C1104       C  0.84179315  0.36160290  0.01173018    -0.23000
C1105       C  0.79653296  0.39971178  0.96329966    -0.06100
H1106       H  0.83907375  0.40608461  0.93238821     0.14600
C1107       C  0.88517957  0.35587324  0.00477192    -0.16300
H1108       H  0.84235280  0.34885661  0.03354020     0.08900
H1109       H  0.75907596  0.39726629  0.08816281     0.06800
H1110       H  0.74993435  0.37099307  0.11080103     0.08000
H1111       H  0.73250735  0.38301864  0.07394127     0.07000
H1112       H  0.82047230  0.31995518  0.98802561     0.01900
H1113       H  0.80425146  0.33501897  0.95284022     0.02400
H1114       H  0.79340451  0.30790010  0.97152060     0.05900
H1115       H  0.79893541  0.41242223  0.94076481     0.04900
H1116       H  0.78918344  0.40944115  0.98674536    -0.00900
H1117       H  0.78378533  0.38609476  0.95445666     0.00600
H1118       H  0.88305985  0.34643336  0.03088289     0.04300
H1119       H  0.89880688  0.36962924  0.00857671     0.06200
H1120       H  0.89122199  0.34273894  0.98464155     0.07100
C1121       C  0.85344664  0.25506179  0.62131861    -0.22600
C1122       C  0.87348420  0.25269397  0.64299934     0.09400
C1123       C  0.88843628  0.23317230  0.63818538     0.09800
C1124       C  0.88368951  0.21704891  0.61042420    -0.17500
C1125       C  0.86409058  0.21972063  0.58774394    -0.27900
C1126       C  0.84847139  0.23875325  0.59375180     0.18100
C1127       C  0.87972887  0.27192534  0.66827450     0.12100
C1128       C  0.90966768  0.22966691  0.66187519    -0.12200
H1129       H  0.89559760  0.20248006  0.60595084     0.12400
C1130       C  0.82728939  0.24272548  0.57010404    -0.23100
H1131       H  0.84210670  0.27017584  0.62525411     0.08000
C1132       C  0.89361237  0.29106048  0.65660096     0.04400
C1133       C  0.90005674  0.30853404  0.68146964    -0.20300
C1134       C  0.89267110  0.30745215  0.71757272    -0.12600
C1135       C  0.87874359  0.28831718  0.72932728     0.13100
C1136       C  0.87239400  0.27071426  0.70442742    -0.23000
C1137       C  0.90173609  0.29292859  0.61791917    -0.06100
H1138       H  0.91084045  0.32319300  0.67270172     0.14600
C1139       C  0.87128145  0.28606030  0.76826810    -0.16300
H1140       H  0.86193783  0.25582728  0.71320035     0.08900
H1141       H  0.81776341  0.25907800  0.57760780     0.06800
H1142       H  0.81486734  0.22781033  0.57308771     0.08000
H1143       H  0.83278100  0.24432288  0.54138602     0.07000
H1144       H  0.90406948  0.22798539  0.69052644     0.01900
H1145       H  0.92170298  0.24493781  0.65924449     0.02400
H1146       H  0.91953263  0.21350944  0.65441070     0.05900
H1147       H  0.91245399  0.30899137  0.61334890     0.04900
H1148       H  0.88630214  0.29369254  0.59962378    -0.00900
H1149       H  0.91260941  0.27738413  0.61081202     0.00600
H1150       H  0.86011761  0.30126406  0.77597576     0.04300
H1151       H  0.88700487  0.28558742  0.78599184     0.06200
H1152       H  0.86104353  0.26970322  0.77300554     0.07100
C1153       C  0.75499510  0.20459184  0.28484445    -0.22600
C1154       C  0.75168394  0.22892112  0.28940502     0.09400
C1155       C  0.76191287  0.24038251  0.31918321     0.09800
C1156       C  0.77576690  0.22743130  0.34323997    -0.17500
C1157       C  0.78041664  0.20326397  0.33789442    -0.27900
C1158       C  0.76935474  0.19156903  0.30863088     0.18100
C1159       C  0.73886047  0.24256266  0.26150222     0.12100
C1160       C  0.75902700  0.26652806  0.32475251    -0.12200
H1161       H  0.78371026  0.23659345  0.36585805     0.12400
C1162       C  0.77332995  0.16580048  0.30126143    -0.23100
H1163       H  0.74695190  0.19596463  0.26182056     0.08000
C1164       C  0.75011183  0.24985670  0.22936774     0.04400
C1165       C  0.73756534  0.26315834  0.20384990    -0.20300
C1166       C  0.71408558  0.26937145  0.20987232    -0.12600
C1167       C  0.70312062  0.26291707  0.24278835     0.13100
C1168       C  0.71564716  0.24949230  0.26816392    -0.23000
C1169       C  0.77534223  0.24353110  0.22203063    -0.06100
H1170       H  0.74582126  0.26795487  0.17847539     0.14600
C1171       C  0.67836602  0.27011574  0.25207898    -0.16300
H1172       H  0.70728014  0.24441928  0.29333411     0.08900
H1173       H  0.79233153  0.16240459  0.29706602     0.06800
H1174       H  0.76385197  0.15985796  0.27664746     0.08000
H1175       H  0.76682540  0.15517592  0.32437603     0.07000
H1176       H  0.74017806  0.27085139  0.32839945     0.01900
H1177       H  0.76592061  0.27616671  0.30087171     0.02400
H1178       H  0.76866875  0.27281286  0.34901318     0.05900
H1179       H  0.78152495  0.25084221  0.19584640     0.04900
H1180       H  0.77731545  0.22409957  0.22103650    -0.00900
H1181       H  0.78668572  0.25069241  0.24383386     0.00600
H1182       H  0.67845756  0.28035398  0.27767504     0.04300
H1183       H  0.66734706  0.25417914  0.25582035     0.06200
H1184       H  0.67016030  0.28130367  0.23100156     0.07100
C1185       C  0.52468834  0.39745574  0.88269299    -0.22600
C1186       C  0.52109364  0.37803210  0.90541268     0.09400
C1187       C  0.50015959  0.36494121  0.90267052     0.09800
C1188       C  0.48373615  0.37082957  0.87594000    -0.17500
C1189       C  0.48780269  0.38942482  0.85166142    -0.27900
C1190       C  0.50831272  0.40332138  0.85567604     0.18100
C1191       C  0.54038892  0.37010445  0.92931002     0.12100
C1192       C  0.49563886  0.34413561  0.92698517    -0.12200
H1193       H  0.46803796  0.36021517  0.87297811     0.12400
C1194       C  0.51381510  0.42331665  0.83024814    -0.23100
H1195       H  0.54088596  0.40735448  0.88505422     0.08000
C1196       C  0.55766280  0.35435374  0.91647024     0.04400
C1197       C  0.57483899  0.34593653  0.94033112    -0.20300
C1198       C  0.57535578  0.35324538  0.97651168    -0.12600
C1199       C  0.55809936  0.36904611  0.98941809     0.13100
C1200       C  0.54074041  0.37731182  0.96556443    -0.23000
C1201       C  0.55786514  0.34634424  0.87761664    -0.06100
H1202       H  0.58808706  0.33376237  0.93065655     0.14600
C1203       C  0.55743993  0.37643796  0.02854715    -0.16300
H1204       H  0.52720745  0.38915010  0.97526135     0.08900
H1205       H  0.51446808  0.41675315  0.80197079     0.06800
H1206       H  0.53103243  0.43155039  0.83648688     0.08000
H1207       H  0.50016474  0.43716796  0.83263597     0.07000
H1208       H  0.49560508  0.34993941  0.95565700     0.01900
H1209       H  0.50956453  0.33069248  0.92312152     0.02400
H1210       H  0.47843832  0.33574900  0.92113658     0.05900
H1211       H  0.57248930  0.33390043  0.87216014     0.04900
H1212       H  0.56000143  0.36179195  0.85951000    -0.00900
H1213       H  0.54112300  0.33729862  0.87108612     0.00600
H1214       H  0.57367928  0.38621000  0.03553780     0.04300
H1215       H  0.55595878  0.36063192  0.04609807     0.06200
H1216       H  0.54223896  0.38809819  0.03431078     0.07100
C1217       C  0.63150236  0.39826800  0.26388440    -0.22600
C1218       C  0.64141017  0.41952763  0.25194344     0.09400
C1219       C  0.65857072  0.41886107  0.22435857     0.09800
C1220       C  0.66382300  0.39733737  0.20726135    -0.17500
C1221       C  0.65206067  0.37638465  0.21652637    -0.27900
C1222       C  0.63642481  0.37675410  0.24643678     0.18100
C1223       C  0.63169754  0.44234025  0.26568986     0.12100
C1224       C  0.67041198  0.44104789  0.21147527    -0.12200
H1225       H  0.67596185  0.39727400  0.18468619     0.12400
C1226       C  0.62469455  0.35466766  0.26006076    -0.23100
H1227       H  0.61883949  0.39873226  0.28575775     0.08000
C1228       C  0.60910533  0.45011769  0.25528768     0.04400
C1229       C  0.60075997  0.47204277  0.26748444    -0.20300
C1230       C  0.61443151  0.48682749  0.28963245    -0.12600
C1231       C  0.63728848  0.47914696  0.29950716     0.13100
C1232       C  0.64546368  0.45695030  0.28776450    -0.23000
C1233       C  0.59399493  0.43562106  0.23027755    -0.06100
H1234       H  0.58337280  0.47774514  0.25941153     0.14600
C1235       C  0.65363248  0.49455501  0.32099720    -0.16300
H1236       H  0.66286239  0.45106690  0.29543433     0.08900
H1237       H  0.61186160  0.34801853  0.23997532     0.06800
H1238       H  0.61490893  0.35791295  0.28556740     0.08000
H1239       H  0.63813839  0.34096862  0.26555911     0.07000
H1240       H  0.68057077  0.44904357  0.23393715     0.01900
H1241       H  0.65704038  0.45380368  0.20180536     0.02400
H1242       H  0.68278471  0.43753018  0.18889432     0.05900
H1243       H  0.57727901  0.44470447  0.22361934     0.04900
H1244       H  0.58953401  0.41856614  0.24317928    -0.00900
H1245       H  0.60353641  0.43229598  0.20458414     0.00600
H1246       H  0.67138997  0.48663893  0.32346635     0.04300
H1247       H  0.64667422  0.49686286  0.34870026     0.06200
H1248       H  0.65555652  0.51194142  0.30756249     0.07100
C1249       C  0.50423183  0.45187520  0.52498940    -0.22600
C1250       C  0.49952254  0.47580353  0.52037167     0.09400
C1251       C  0.48157043  0.48654442  0.54090886     0.09800
C1252       C  0.46968115  0.47332236  0.56740502    -0.17500
C1253       C  0.47547872  0.44965055  0.57385971    -0.27900
C1254       C  0.49250711  0.43859380  0.55133353     0.18100
C1255       C  0.51350196  0.48896826  0.49327182     0.12100
C1256       C  0.47515265  0.51196805  0.53504476    -0.12200
H1257       H  0.45649295  0.48176585  0.58408369     0.12400
C1258       C  0.49843983  0.41276375  0.55435639    -0.23100
H1259       H  0.51757742  0.44367368  0.50828821     0.08000
C1260       C  0.53430854  0.50104836  0.50271801     0.04400
C1261       C  0.54681617  0.51340793  0.47588140    -0.20300
C1262       C  0.53917077  0.51340905  0.43978434    -0.12600
C1263       C  0.51925261  0.49978994  0.43014019     0.13100
C1264       C  0.50650393  0.48808443  0.45707296    -0.23000
C1265       C  0.54316887  0.50092765  0.54109192    -0.06100
H1266       H  0.56199752  0.52383630  0.48333519     0.14600
C1267       C  0.51107738  0.49699710  0.39157252    -0.16300
H1268       H  0.49102254  0.47804674  0.44974180     0.08900
H1269       H  0.50812954  0.40931633  0.57980465     0.06800
H1270       H  0.50992195  0.40682580  0.53184037     0.08000
H1271       H  0.48213286  0.40207171  0.55343275     0.07000
H1272       H  0.46939024  0.51457930  0.50663859     0.01900
H1273       H  0.49056887  0.52336605  0.54048077     0.02400
H1274       H  0.46064531  0.51759321  0.55316577     0.05900
H1275       H  0.55964882  0.51120904  0.54391530     0.04900
H1276       H  0.54676522  0.48254239  0.54968512    -0.00900
H1277       H  0.52982115  0.50871265  0.55938486     0.00600
H1278       H  0.50998624  0.47797398  0.38483691     0.04300
H1279       H  0.52320094  0.50508511  0.37171330     0.06200
H1280       H  0.49341276  0.50499848  0.38839038     0.07100
C1281       C  0.49088380  0.21229809  0.09393757    -0.22600
C1282       C  0.48950561  0.23224147  0.11626147     0.09400
C1283       C  0.46880851  0.23645968  0.13625871     0.09800
C1284       C  0.44992484  0.22061518  0.13339182    -0.17500
C1285       C  0.45089027  0.20131023  0.10971379    -0.27900
C1286       C  0.47165913  0.19699389  0.08994573     0.18100
C1287       C  0.50914969  0.24945733  0.11549318     0.12100
C1288       C  0.46611420  0.25837157  0.15885118    -0.12200
H1289       H  0.43374442  0.22418124  0.14783604     0.12400
C1290       C  0.47340974  0.17644748  0.06430532    -0.23100
H1291       H  0.50676191  0.20925203  0.07847082     0.08000
C1292       C  0.52731444  0.24915645  0.14143317     0.04400
C1293       C  0.54626799  0.26484946  0.13781328    -0.20300
C1294       C  0.54795535  0.28024145  0.10812870    -0.12600
C1295       C  0.52930874  0.28098124  0.08273197     0.13100
C1296       C  0.51018839  0.26558615  0.08681632    -0.23000
C1297       C  0.52742057  0.23138614  0.17168830    -0.06100
H1298       H  0.56068510  0.26389921  0.15690079     0.14600
C1299       C  0.52892816  0.29771217  0.05105299    -0.16300
H1300       H  0.49613841  0.26584145  0.06702128     0.08900
H1301       H  0.49109824  0.17523989  0.05180645     0.06800
H1302       H  0.46037911  0.17835212  0.04218114     0.08000
H1303       H  0.46999018  0.15980243  0.07915401     0.07000
H1304       H  0.46800727  0.27417799  0.14141599     0.01900
H1305       H  0.47969744  0.25888571  0.18029156     0.02400
H1306       H  0.44864054  0.25917357  0.17212347     0.05900
H1307       H  0.54319941  0.23323933  0.18910877     0.04900
H1308       H  0.52737593  0.21331532  0.16024020    -0.00900
H1309       H  0.51169897  0.23366717  0.18898753     0.00600
H1310       H  0.52958855  0.28755809  0.02540265     0.04300
H1311       H  0.54366036  0.31044443  0.05139356     0.06200
H1312       H  0.51243376  0.30813178  0.05163752     0.07100
C1313       C  0.38932823  0.29959468  0.88011492    -0.22600
C1314       C  0.36900808  0.28708106  0.87057074     0.09400
C1315       C  0.35704549  0.29309711  0.83843847     0.09800
C1316       C  0.36601874  0.31108655  0.81612968    -0.17500
C1317       C  0.38704935  0.32281011  0.82469376    -0.27900
C1318       C  0.39864609  0.31719525  0.85750373     0.18100
C1319       C  0.36186469  0.26664184  0.89341213     0.12100
C1320       C  0.33531498  0.27996479  0.82708378    -0.12200
H1321       H  0.35706190  0.31538029  0.79111302     0.12400
C1322       C  0.42064196  0.32988001  0.86916294    -0.23100
H1323       H  0.39834534  0.29501476  0.90496501     0.08000
C1324       C  0.37467804  0.24537566  0.89234925     0.04400
C1325       C  0.36959581  0.22748963  0.91733310    -0.20300
C1326       C  0.35166161  0.23000638  0.94309759    -0.12600
C1327       C  0.33772860  0.25068079  0.94263904     0.13100
C1328       C  0.34312142  0.26884821  0.91790303    -0.23000
C1329       C  0.39388057  0.24158430  0.86492814    -0.06100
H1330       H  0.38010971  0.21157054  0.91734435     0.14600
C1331       C  0.31799630  0.25414897  0.96923245    -0.16300
H1332       H  0.33317573  0.28511453  0.91839666     0.08900
H1333       H  0.42646844  0.32424712  0.89650521     0.06800
H1334       H  0.41736735  0.34914552  0.87002024     0.08000
H1335       H  0.43519084  0.32608406  0.85009546     0.07000
H1336       H  0.32146379  0.28201922  0.84795683     0.01900
H1337       H  0.33945781  0.26098057  0.82378560     0.02400
H1338       H  0.32827667  0.28662936  0.80100034     0.05900
H1339       H  0.40172590  0.22374009  0.86722993     0.04900
H1340       H  0.40809946  0.25467000  0.86892534    -0.00900
H1341       H  0.38659303  0.24350278  0.83722532     0.00600
H1342       H  0.32484149  0.25311123  0.99730995     0.04300
H1343       H  0.30446205  0.24034143  0.96518378     0.06200
H1344       H  0.30938358  0.27155068  0.96573617     0.07100
C1345       C  0.98010025  0.22751184  0.37535747    -0.22600
C1346       C  0.99853151  0.22530181  0.40028852     0.09400
C1347       C  0.99697808  0.20823788  0.42796399     0.09800
C1348       C  0.97648600  0.19469861  0.43137787    -0.17500
C1349       C  0.95752268  0.19758236  0.40754712    -0.27900
C1350       C  0.95959330  0.21377890  0.37856401     0.18100
C1351       C  0.01813200  0.24259530  0.39983392     0.12100
C1352       C  0.01676020  0.20473675  0.45448373    -0.12200
H1353       H  0.97496077  0.18222952  0.45346359     0.12400
C1354       C  0.93975325  0.21762653  0.35229211    -0.23100
H1355       H  0.98140595  0.24066492  0.35420787     0.08000
C1356       C  0.03865215  0.23914473  0.37910169     0.04400
C1357       C  0.05782999  0.25453752  0.38364711    -0.20300
C1358       C  0.05701319  0.27297333  0.40899363    -0.12600
C1359       C  0.03593562  0.27709844  0.42828538     0.13100
C1360       C  0.01673397  0.26196354  0.42321375    -0.23000
C1361       C  0.04055324  0.21876074  0.35326495    -0.06100
H1362       H  0.07397041  0.25134934  0.36890874     0.14600
C1363       C  0.03357687  0.29741888  0.45431242    -0.16300
H1364       H  0.00080700  0.26464343  0.43873247     0.08900
H1365       H  0.94399872  0.23153819  0.33220984     0.06800
H1366       H  0.92370236  0.22310114  0.36711597     0.08000
H1367       H  0.93621048  0.20111033  0.33723173     0.07000
H1368       H  0.01984210  0.22120329  0.46992892     0.01900
H1369       H  0.03302928  0.19991676  0.43970149     0.02400
H1370       H  0.01282977  0.19047935  0.47414049     0.05900
H1371       H  0.05782977  0.21845772  0.33934416     0.04900
H1372       H  0.02660903  0.22012683  0.33239271    -0.00900
H1373       H  0.03845032  0.20192822  0.36818875     0.00600
H1374       H  0.01547470  0.29880970  0.46527745     0.04300
H1375       H  0.03773663  0.31417099  0.44021792     0.06200
H1376       H  0.04561093  0.29511233  0.47762003     0.07100
C1377       C  0.28771693  0.35191868  0.54343081    -0.22600
C1378       C  0.29547727  0.37264387  0.52685423     0.09400
C1379       C  0.28372766  0.38080563  0.49565576     0.09800
C1380       C  0.26383326  0.36847985  0.48276182    -0.17500
C1381       C  0.25550717  0.34789547  0.50003909    -0.27900
C1382       C  0.26817969  0.33936806  0.53055734     0.18100
C1383       C  0.31660618  0.38434384  0.54268080     0.12100
C1384       C  0.29205078  0.40256185  0.47626572    -0.12200
H1385       H  0.25454376  0.37522022  0.45937375     0.12400
C1386       C  0.26191865  0.31669416  0.54950929    -0.23100
H1387       H  0.29720241  0.34545298  0.56684801     0.08000
C1388       C  0.31545857  0.39612232  0.57635705     0.04400
C1389       C  0.33628761  0.40073325  0.59566473    -0.20300
C1390       C  0.35824949  0.39370817  0.58214457    -0.12600
C1391       C  0.35952027  0.38421772  0.54680762     0.13100
C1392       C  0.33868662  0.37960865  0.52752833    -0.23000
C1393       C  0.29217990  0.40320250  0.59233128    -0.06100
H1394       H  0.33528866  0.40854640  0.62237597     0.14600
C1395       C  0.38282286  0.37879294  0.52948206    -0.16300
H1396       H  0.33957977  0.37091138  0.50147362     0.08900
H1397       H  0.27513781  0.31182795  0.57030076     0.06800
H1398       H  0.26112105  0.30208268  0.52959695     0.08000
H1399       H  0.24486293  0.31850871  0.56368969     0.07000
H1400       H  0.31026391  0.39987638  0.46641586     0.01900
H1401       H  0.29170907  0.41782545  0.49501710     0.02400
H1402       H  0.28079595  0.40676536  0.45259198     0.05900
H1403       H  0.29437431  0.41248424  0.61856091     0.04900
H1404       H  0.28113019  0.38741824  0.59708616    -0.00900
H1405       H  0.28295634  0.41523402  0.57338980     0.00600
H1406       H  0.39193815  0.36465520  0.54464839     0.04300
H1407       H  0.39390307  0.39488190  0.52926619     0.06200
H1408       H  0.38069163  0.37275866  0.50109626     0.07100
C1409       C  0.24868096  0.26014481  0.28765761    -0.22600
C1410       C  0.25419936  0.23656448  0.29533859     0.09400
C1411       C  0.24949818  0.22745606  0.32997418     0.09800
C1412       C  0.23887744  0.24193428  0.35592463    -0.17500
C1413       C  0.23200922  0.26524520  0.34797298    -0.27900
C1414       C  0.23747186  0.27459827  0.31343230     0.18100
C1415       C  0.26527486  0.22173196  0.26700782     0.12100
C1416       C  0.25480012  0.20213296  0.33908771    -0.12200
H1417       H  0.23492695  0.23455796  0.38227642     0.12400
C1418       C  0.23063163  0.29927566  0.30288517    -0.23100
H1419       H  0.25265315  0.26705688  0.26102132     0.08000
C1420       C  0.25208166  0.21131514  0.23884710     0.04400
C1421       C  0.26372589  0.19840279  0.21172498    -0.20300
C1422       C  0.28820216  0.19574974  0.21237410    -0.12600
C1423       C  0.30110350  0.20481866  0.24200886     0.13100
C1424       C  0.28950636  0.21786604  0.26872483    -0.23000
C1425       C  0.22584037  0.21421432  0.23713293    -0.06100
H1426       H  0.25389615  0.19154348  0.18894026     0.14600
C1427       C  0.32721425  0.20125365  0.24601220    -0.16300
H1428       H  0.29950304  0.22535380  0.29088030     0.08900
H1429       H  0.21130533  0.30142949  0.30496590     0.06800
H1430       H  0.23582694  0.30340142  0.27462736     0.08000
H1431       H  0.23949909  0.31211673  0.32092444     0.07000
H1432       H  0.27391398  0.19876619  0.33652433     0.01900
H1433       H  0.24513251  0.19033835  0.32032495     0.02400
H1434       H  0.24946405  0.19765868  0.36715505     0.05900
H1435       H  0.21819331  0.20477573  0.21360599     0.04900
H1436       H  0.22132076  0.23315449  0.23463143    -0.00900
H1437       H  0.21776246  0.20703298  0.26214151     0.00600
H1438       H  0.33627098  0.21854561  0.24483495     0.04300
H1439       H  0.33469904  0.18964771  0.22483325     0.06200
H1440       H  0.33093406  0.19289815  0.27256308     0.07100
C1441       C  0.06302823  0.37906216  0.60522239    -0.22600
C1442       C  0.04089256  0.36842132  0.60396698     0.09400
C1443       C  0.03593936  0.35155940  0.57707686     0.09800
C1444       C  0.05359930  0.34510767  0.55258830    -0.17500
C1445       C  0.07611581  0.35516495  0.55435999    -0.27900
C1446       C  0.08079199  0.37263963  0.58084058     0.18100
C1447       C  0.02427799  0.37289302  0.63388904     0.12100
C1448       C  0.01221636  0.33993411  0.57493639    -0.12200
H1449       H  0.04990375  0.33185774  0.53226149     0.12400
C1450       C  0.10472017  0.38363762  0.58510528    -0.23100
H1451       H  0.06666344  0.39176972  0.62637722     0.08000
C1452       C  0.02587835  0.35981198  0.66613265     0.04400
C1453       C  0.00968121  0.36391890  0.69379707    -0.20300
C1454       C  0.99168387  0.38072651  0.69015088    -0.12600
C1455       C  0.99025586  0.39407029  0.65778662     0.13100
C1456       C  0.00666096  0.38994423  0.62999245    -0.23000
C1457       C  0.04453098  0.34124037  0.67116322    -0.06100
H1458       H  0.01110051  0.35378800  0.71854009     0.14600
C1459       C  0.97117183  0.41200506  0.65175264    -0.16300
H1460       H  0.00563146  0.39983714  0.60496774     0.08900
H1461       H  0.11804992  0.36967866  0.58959333     0.06800
H1462       H  0.10540936  0.39584609  0.60855405     0.08000
H1463       H  0.10923683  0.39398683  0.56062393     0.07000
H1464       H  0.99847533  0.35350118  0.57055595     0.01900
H1465       H  0.00849934  0.33039276  0.60051340     0.02400
H1466       H  0.01127530  0.32708991  0.55232631     0.05900
H1467       H  0.04309979  0.33243850  0.69790343     0.04900
H1468       H  0.06219987  0.34938497  0.66930793    -0.00900
H1469       H  0.04279606  0.32755183  0.64989569     0.00600
H1470       H  0.97299439  0.42661803  0.67146813     0.04300
H1471       H  0.95370325  0.40357210  0.65486723     0.06200
H1472       H  0.97207609  0.41976137  0.62420296     0.07100
C1473       C  0.14385755  0.39967739  0.27172241    -0.22600
C1474       C  0.14449149  0.42194334  0.28801634     0.09400
C1475       C  0.15433451  0.42432884  0.32291552     0.09800
C1476       C  0.16221376  0.40418926  0.34150246    -0.17500
C1477       C  0.15993258  0.38164565  0.32628322    -0.27900
C1478       C  0.15148877  0.37951017  0.29038579     0.18100
C1479       C  0.13262418  0.44212459  0.26996091     0.12100
C1480       C  0.15553863  0.44803664  0.34110928    -0.12200
H1481       H  0.16843899  0.40587135  0.36909620     0.12400
C1482       C  0.14988749  0.35611210  0.27131404    -0.23100
H1483       H  0.13651792  0.39788348  0.24480566     0.08000
C1484       C  0.14384837  0.45606936  0.24356292     0.04400
C1485       C  0.13240912  0.47624757  0.23008162    -0.20300
C1486       C  0.11002802  0.48294997  0.24266006    -0.12600
C1487       C  0.09843712  0.46819254  0.26803180     0.13100
C1488       C  0.10985402  0.44796513  0.28105615    -0.23000
C1489       C  0.16806650  0.44991579  0.23031382    -0.06100
H1490       H  0.14139291  0.48731588  0.21062001     0.14600
C1491       C  0.07396666  0.47336396  0.28145012    -0.16300
H1492       H  0.10123476  0.43692126  0.30095605     0.08900
H1493       H  0.15975157  0.35700333  0.24544824     0.06800
H1494       H  0.13122470  0.35199775  0.26541169     0.08000
H1495       H  0.15748039  0.34145755  0.28731815     0.07000
H1496       H  0.13757575  0.45523275  0.34476342     0.01900
H1497       H  0.16594322  0.46037151  0.32420326     0.02400
H1498       H  0.16394103  0.44691575  0.36816002     0.05900
H1499       H  0.16780800  0.43222923  0.21753369     0.04900
H1500       H  0.18054469  0.44976385  0.25338194    -0.00900
H1501       H  0.17450937  0.46278966  0.20999079     0.00600
H1502       H  0.06701010  0.45881029  0.29842265     0.04300
H1503       H  0.06189348  0.47567737  0.25814014     0.06200
H1504       H  0.07395613  0.48945575  0.29844179     0.07100
C1505       C  0.22180679  0.59930020  0.99081140    -0.22600
C1506       C  0.20995369  0.61110576  0.01858128     0.09400
C1507       C  0.21819435  0.63322290  0.03034589     0.09800
C1508       C  0.23859164  0.64268794  0.01481821    -0.17500
C1509       C  0.25108244  0.63068046  0.98756601    -0.27900
C1510       C  0.24220455  0.60879840  0.97499658     0.18100
C1511       C  0.18898406  0.60003394  0.03529145     0.12100
C1512       C  0.20560881  0.64672063  0.05961953    -0.12200
H1513       H  0.24506254  0.65948279  0.02454858     0.12400
C1514       C  0.25432294  0.59493500  0.94579501    -0.23100
H1515       H  0.21515014  0.58242125  0.98176030     0.08000
C1516       C  0.16625189  0.60443854  0.02192796     0.04400
C1517       C  0.14673979  0.59588740  0.04103744    -0.20300
C1518       C  0.14935543  0.58317555  0.07349400    -0.12600
C1519       C  0.17228335  0.57767896  0.08573524     0.13100
C1520       C  0.19181699  0.58611261  0.06632871    -0.23000
C1521       C  0.16260399  0.61891969  0.98824627    -0.06100
H1522       H  0.12924719  0.60024709  0.03161987     0.14600
C1523       C  0.17632768  0.56438670  0.12044267    -0.16300
H1524       H  0.20939999  0.58275184  0.07628298     0.08900
H1525       H  0.25381202  0.60506701  0.92019574     0.06800
H1526       H  0.24552837  0.57779596  0.94072438     0.08000
H1527       H  0.27276574  0.59124819  0.95368791     0.07000
H1528       H  0.20512252  0.63612970  0.08484584     0.01900
H1529       H  0.18737054  0.65064329  0.05095680     0.02400
H1530       H  0.21444929  0.66369307  0.06572872     0.05900
H1531       H  0.14369472  0.62077799  0.98151441     0.04900
H1532       H  0.17151981  0.61033902  0.96502807    -0.00900
H1533       H  0.17000750  0.63682200  0.99208360     0.00600
H1534       H  0.19532199  0.56225395  0.12638083     0.04300
H1535       H  0.16848860  0.54654850  0.11841303     0.06200
H1536       H  0.16825238  0.57405140  0.14337046     0.07100
C1537       C  0.44294982  0.59431921  0.10945683    -0.22600
C1538       C  0.46563970  0.60348272  0.10558029     0.09400
C1539       C  0.47097920  0.61816104  0.07599822     0.09800
C1540       C  0.45314100  0.62427673  0.05170233    -0.17500
C1541       C  0.43010526  0.61594290  0.05619499    -0.27900
C1542       C  0.42502906  0.60034095  0.08506007     0.18100
C1543       C  0.48275485  0.59993013  0.13507041     0.12100
C1544       C  0.49533487  0.62792041  0.07075522    -0.12200
H1545       H  0.45709439  0.63603662  0.02941224     0.12400
C1546       C  0.40062421  0.59101724  0.09151749    -0.23100
H1547       H  0.43907994  0.58316840  0.13250245     0.08000
C1548       C  0.48290916  0.61511398  0.16513816     0.04400
C1549       C  0.49982217  0.61196538  0.19208000    -0.20300
C1550       C  0.51680944  0.59400428  0.18985466    -0.12600
C1551       C  0.51644364  0.57858653  0.15957317     0.13100
C1552       C  0.49937849  0.58184975  0.13251224    -0.23000
C1553       C  0.46533260  0.63485315  0.16859828    -0.06100
H1554       H  0.49960550  0.62366446  0.21521286     0.14600
C1555       C  0.53413549  0.55908844  0.15486178    -0.16300
H1556       H  0.49906612  0.57039219  0.10906940     0.08900
H1557       H  0.39969839  0.58010187  0.11641443     0.06800
H1558       H  0.39517115  0.57977027  0.06847883     0.08000
H1559       H  0.38812490  0.60588524  0.09462097     0.07000
H1560       H  0.50801567  0.61321754  0.06760957     0.01900
H1561       H  0.50040422  0.63870551  0.09454593     0.02400
H1562       H  0.49647383  0.63922571  0.04629715     0.05900
H1563       H  0.46801852  0.64520118  0.19375122     0.04900
H1564       H  0.44726621  0.62754694  0.16919542    -0.00900
H1565       H  0.46702846  0.64703373  0.14525366     0.00600
H1566       H  0.53202887  0.54581150  0.17664802     0.04300
H1567       H  0.55218496  0.56645230  0.15544638     0.06200
H1568       H  0.53184225  0.54979131  0.12866665     0.07100
C1569       C  0.37280626  0.58268099  0.76179009    -0.22600
C1570       C  0.36941936  0.55964496  0.77429520     0.09400
C1571       C  0.35637531  0.55592353  0.80632284     0.09800
C1572       C  0.34842038  0.57540204  0.82646038    -0.17500
C1573       C  0.35368320  0.59853104  0.81573202    -0.27900
C1574       C  0.36505147  0.60218281  0.78204058     0.18100
C1575       C  0.38219181  0.53993293  0.75643770     0.12100
C1576       C  0.35206039  0.53139127  0.82036458    -0.12200
H1577       H  0.33973355  0.57250744  0.85216712     0.12400
C1578       C  0.36919112  0.62661970  0.76741914    -0.23100
H1579       H  0.38254121  0.58542539  0.73695154     0.08000
C1580       C  0.37161312  0.52529768  0.73031808     0.04400
C1581       C  0.38364331  0.50514988  0.71806053    -0.20300
C1582       C  0.40602603  0.49915145  0.73149487    -0.12600
C1583       C  0.41720216  0.51490776  0.75592010     0.13100
C1584       C  0.40513546  0.53506326  0.76784472    -0.23000
C1585       C  0.34754128  0.53079140  0.71578659    -0.06100
H1586       H  0.37498298  0.49344901  0.69914454     0.14600
C1587       C  0.44176742  0.51078181  0.76982363    -0.16300
H1588       H  0.41330726  0.54669320  0.78739685     0.08900
H1589       H  0.37671843  0.62613627  0.73971227     0.06800
H1590       H  0.38169622  0.63639343  0.78478860     0.08000
H1591       H  0.35227984  0.63630973  0.76614396     0.07000
H1592       H  0.36906046  0.52249953  0.82575516     0.01900
H1593       H  0.34207920  0.52102585  0.80012351     0.02400
H1594       H  0.34179218  0.53156841  0.84589737     0.05900
H1595       H  0.34176479  0.51754662  0.69555683     0.04900
H1596       H  0.34774227  0.54832268  0.70250496    -0.00900
H1597       H  0.33453012  0.53101236  0.73809724     0.00600
H1598       H  0.44837673  0.52611329  0.78545161     0.04300
H1599       H  0.45393213  0.50785994  0.74679030     0.06200
H1600       H  0.44212329  0.49540064  0.78829429     0.07100
C1601       C  0.15210472  0.73726644  0.37729222    -0.22600
C1602       C  0.13883963  0.71681015  0.38301323     0.09400
C1603       C  0.13002432  0.71186362  0.41779592     0.09800
C1604       C  0.13420478  0.72776829  0.44597173    -0.17500
C1605       C  0.14678678  0.74874465  0.44031236    -0.27900
C1606       C  0.15593430  0.75355941  0.40537570     0.18100
C1607       C  0.13352776  0.70092093  0.35230834     0.12100
C1608       C  0.11591956  0.68990004  0.42507141    -0.12200
H1609       H  0.12728324  0.72393058  0.47265389     0.12400
C1610       C  0.16853846  0.77606441  0.39588222    -0.23100
H1611       H  0.15876060  0.74096388  0.35040812     0.08000
C1612       C  0.11244293  0.70301888  0.33266391     0.04400
C1613       C  0.10627996  0.68540724  0.30777776    -0.20300
C1614       C  0.12073322  0.66563309  0.30185247    -0.12600
C1615       C  0.14263430  0.66437244  0.32039130     0.13100
C1616       C  0.14860724  0.68203666  0.34539172    -0.23000
C1617       C  0.09624598  0.72365129  0.33854537    -0.06100
H1618       H  0.08981286  0.68697077  0.29330024     0.14600
C1619       C  0.15954513  0.64419068  0.31549270    -0.16300
H1620       H  0.16478937  0.68071037  0.36069515     0.08900
H1621       H  0.15956133  0.78462629  0.37268512     0.06800
H1622       H  0.18690052  0.77200317  0.38798218     0.08000
H1623       H  0.16882863  0.78908151  0.41806786     0.07000
H1624       H  0.12660354  0.67410216  0.41862147     0.01900
H1625       H  0.09984887  0.68983126  0.40810473     0.02400
H1626       H  0.11041690  0.68869791  0.45383397     0.05900
H1627       H  0.08048607  0.72267232  0.32092408     0.04900
H1628       H  0.10566653  0.74027760  0.33231816    -0.00900
H1629       H  0.09024227  0.72409565  0.36709468     0.00600
H1630       H  0.17522327  0.64595931  0.33315134     0.04300
H1631       H  0.16591152  0.64367312  0.28712903     0.06200
H1632       H  0.15081219  0.62734873  0.32257165     0.07100
C1633       C  0.22052510  0.75669212  0.76643105    -0.22600
C1634       C  0.24457895  0.75263074  0.76170016     0.09400
C1635       C  0.25615161  0.76251388  0.73147456     0.09800
C1636       C  0.24300713  0.77467828  0.70513208    -0.17500
C1637       C  0.21868444  0.77768809  0.70901432    -0.27900
C1638       C  0.20751873  0.76940610  0.74078939     0.18100
C1639       C  0.25736084  0.73851256  0.78930178     0.12100
C1640       C  0.28231749  0.76014450  0.72710471    -0.12200
H1641       H  0.25156034  0.78103994  0.68083281     0.12400
C1642       C  0.18188472  0.77377862  0.74847242    -0.23100
H1643       H  0.21181604  0.74982926  0.79028918     0.08000
C1644       C  0.26522980  0.74886353  0.82165954     0.04400
C1645       C  0.27759459  0.73514293  0.84677072    -0.20300
C1646       C  0.28259129  0.71112919  0.84053363    -0.12600
C1647       C  0.27409303  0.70059595  0.80830340     0.13100
C1648       C  0.26156079  0.71446110  0.78314234    -0.23000
C1649       C  0.26094569  0.77456496  0.82939788    -0.06100
H1650       H  0.28373303  0.74346874  0.87139330     0.14600
C1651       C  0.27877672  0.67512691  0.79954593    -0.16300
H1652       H  0.25525267  0.70660809  0.75825519     0.08900
H1653       H  0.18012792  0.78319632  0.77466214     0.06800
H1654       H  0.17244164  0.75672377  0.75027862     0.08000
H1655       H  0.17325246  0.78475799  0.72753488     0.07000
H1656       H  0.28722898  0.74125682  0.72567555     0.01900
H1657       H  0.29130872  0.76838045  0.75055911     0.02400
H1658       H  0.28862929  0.76894861  0.70210314     0.05900
H1659       H  0.26861530  0.78000684  0.85571978     0.04900
H1660       H  0.24178932  0.77807849  0.83033437    -0.00900
H1661       H  0.26901416  0.78550850  0.80784069     0.00600
H1662       H  0.27044670  0.66366560  0.82019834     0.04300
H1663       H  0.29798792  0.67184154  0.79888517     0.06200
H1664       H  0.27146442  0.67013097  0.77277471     0.07100
C1665       C  0.98275000  0.74323702  0.18425534    -0.22600
C1666       C  0.99670523  0.74278554  0.15311638     0.09400
C1667       C  0.99493887  0.76096132  0.12741079     0.09800
C1668       C  0.97992327  0.77999965  0.13444799    -0.17500
C1669       C  0.96683560  0.78115366  0.16670856    -0.27900
C1670       C  0.96761067  0.76205233  0.19128704     0.18100
C1671       C  0.01384641  0.72353028  0.14964008     0.12100
C1672       C  0.00941170  0.76055614  0.09333244    -0.12200
H1673       H  0.97924520  0.79455130  0.11549068     0.12400
C1674       C  0.95257701  0.76059787  0.22481021    -0.23100
H1675       H  0.98395295  0.72887379  0.20351846     0.08000
C1676       C  0.03517084  0.72428553  0.16901154     0.04400
C1677       C  0.04888682  0.70392378  0.17137202    -0.20300
C1678       C  0.04151972  0.68295134  0.15510446    -0.12600
C1679       C  0.02080552  0.68246577  0.13418052     0.13100
C1680       C  0.00720875  0.70296121  0.13141340    -0.23000
C1681       C  0.04283640  0.74624803  0.18859287    -0.06100
H1682       H  0.06476693  0.70399314  0.18754753     0.14600
C1683       C  0.01224398  0.65997115  0.11703756    -0.16300
H1684       H  0.99067210  0.70257252  0.11691797     0.08900
H1685       H  0.96391106  0.76132000  0.24922014     0.06800
H1686       H  0.94284891  0.74365211  0.22485387     0.08000
H1687       H  0.93923209  0.77472443  0.22649961     0.07000
H1688       H  0.00509182  0.74458803  0.07734217     0.01900
H1689       H  0.02836911  0.76028884  0.10028908     0.02400
H1690       H  0.00600709  0.77624422  0.07617119     0.05900
H1691       H  0.06009989  0.74384958  0.20206563     0.04900
H1692       H  0.02977162  0.75093863  0.20966865    -0.00900
H1693       H  0.04441621  0.76102098  0.16908149     0.00600
H1694       H  0.00940204  0.64638319  0.13820445     0.04300
H1695       H  0.02545610  0.65347183  0.09736494     0.06200
H1696       H  0.99541468  0.66259391  0.10241380     0.07100
C1697       C  0.87228567  0.01901666  0.22871325    -0.22600
C1698       C  0.88334163  0.03019672  0.25788377     0.09400
C1699       C  0.90431466  0.02061548  0.27178944     0.09800
C1700       C  0.91317092  0.99951817  0.25736024    -0.17500
C1701       C  0.90162742  0.98737265  0.22920811    -0.27900
C1702       C  0.88117045  0.99785346  0.21400099     0.18100
C1703       C  0.87235347  0.05128142  0.27496431     0.12100
C1704       C  0.91710611  0.03241471  0.30255536    -0.12200
H1705       H  0.92904313  0.99217246  0.26892181     0.12400
C1706       C  0.86812198  0.98676917  0.18301355    -0.23100
H1707       H  0.85633753  0.02668034  0.21788910     0.08000
C1708       C  0.87866926  0.07434816  0.26473937     0.04400
C1709       C  0.87099575  0.09350954  0.28574073    -0.20300
C1710       C  0.85726278  0.09023908  0.31703436    -0.12600
C1711       C  0.84983719  0.06716014  0.32599724     0.13100
C1712       C  0.85734936  0.04801943  0.30466954    -0.23000
C1713       C  0.89424987  0.07865598  0.23249805    -0.06100
H1714       H  0.87678332  0.11111741  0.27874990     0.14600
C1715       C  0.83549108  0.06235102  0.35941288    -0.16300
H1716       H  0.85258163  0.03023758  0.31238031     0.08900
H1717       H  0.85227537  0.99704865  0.17544501     0.06800
H1718       H  0.86229926  0.96876691  0.19050623     0.08000
H1719       H  0.87970738  0.98615623  0.15894532     0.07000
H1720       H  0.90551601  0.03337802  0.32664831     0.01900
H1721       H  0.92233797  0.05050580  0.29457651     0.02400
H1722       H  0.93323378  0.02264894  0.31029085     0.05900
H1723       H  0.89765869  0.09772386  0.22835205     0.04900
H1724       H  0.88570066  0.07165032  0.20775852    -0.00900
H1725       H  0.91139127  0.06971346  0.23632828     0.00600
H1726       H  0.83205006  0.04324523  0.36302339     0.04300
H1727       H  0.81829165  0.07139140  0.35726900     0.06200
H1728       H  0.84497514  0.06872713  0.38375807     0.07100
C1729       C  0.99063374  0.85961801  0.40680776    -0.22600
C1730       C  0.01395120  0.86728371  0.40382085     0.09400
C1731       C  0.02094081  0.88046644  0.37329356     0.09800
C1732       C  0.00454032  0.88520118  0.34592500    -0.17500
C1733       C  0.98154263  0.87650099  0.34799862    -0.27900
C1734       C  0.97432910  0.86393267  0.37908741     0.18100
C1735       C  0.03152722  0.85870636  0.43023535     0.12100
C1736       C  0.04598885  0.88850731  0.36879158    -0.12200
H1737       H  0.01005500  0.89455025  0.32179917     0.12400
C1738       C  0.94974180  0.85456730  0.38354927    -0.23100
H1739       H  0.98538157  0.84940222  0.43022729     0.08000
C1740       C  0.03851929  0.87214636  0.46038652     0.04400
C1741       C  0.05683886  0.86386638  0.48244905    -0.20300
C1742       C  0.06814143  0.84229121  0.47530466    -0.12600
C1743       C  0.06053493  0.82857397  0.44544612     0.13100
C1744       C  0.04233612  0.83702290  0.42339137    -0.23000
C1745       C  0.02665502  0.89514010  0.46921551    -0.06100
H1746       H  0.06235108  0.87431125  0.50546949     0.14600
C1747       C  0.07205165  0.80555132  0.43550308    -0.16300
H1748       H  0.03678660  0.82689673  0.40004564     0.08900
H1749       H  0.93808043  0.85915452  0.36059242     0.06800
H1750       H  0.94184632  0.86204998  0.40848574     0.08000
H1751       H  0.95027792  0.83509052  0.38603348     0.07000
H1752       H  0.05791277  0.87304211  0.36868076     0.01900
H1753       H  0.05094200  0.90035824  0.39138031     0.02400
H1754       H  0.04856988  0.89823573  0.34303532     0.05900
H1755       H  0.03417459  0.90337502  0.49388063     0.04900
H1756       H  0.00765689  0.89206884  0.47396617    -0.00900
H1757       H  0.02875594  0.90768941  0.44645156     0.00600
H1758       H  0.06476893  0.79815183  0.41005295     0.04300
H1759       H  0.06905112  0.79233855  0.45711839     0.06200
H1760       H  0.09118356  0.80823079  0.43148642     0.07100
C1761       C  0.02781936  0.22628220  0.84302929    -0.22600
C1762       C  0.00736932  0.22363865  0.86373873     0.09400
C1763       C  0.00317254  0.20251199  0.88259564     0.09800
C1764       C  0.01983906  0.18445269  0.88070378    -0.17500
C1765       C  0.03988636  0.18673861  0.85897101    -0.27900
C1766       C  0.04406209  0.20788873  0.84001116     0.18100
C1767       C  0.98996021  0.24276083  0.86340141     0.12100
C1768       C  0.98051143  0.19849712  0.90272854    -0.12200
H1769       H  0.01638168  0.16781539  0.89409477     0.12400
C1770       C  0.06517147  0.21136698  0.81600809    -0.23100
H1771       H  0.03075387  0.24253928  0.82831459     0.08000
C1772       C  0.98941199  0.26000148  0.89078686     0.04400
C1773       C  0.97359511  0.27880043  0.88771814    -0.20300
C1774       C  0.95903530  0.28098622  0.85726775    -0.12600
C1775       C  0.95897897  0.26311856  0.83061323     0.13100
C1776       C  0.97450201  0.24418537  0.83406302    -0.23000
C1777       C  0.00646678  0.25930708  0.92194262    -0.06100
H1778       H  0.97392079  0.29278198  0.90768341     0.14600
C1779       C  0.94306077  0.26369344  0.79800084    -0.16300
H1780       H  0.97496722  0.23071439  0.81328029     0.08900
H1781       H  0.07519311  0.22700654  0.82528646     0.06800
H1782       H  0.05932273  0.21433124  0.78771967     0.08000
H1783       H  0.07728593  0.19607947  0.81631180     0.07000
H1784       H  0.96549797  0.19997857  0.88370502     0.01900
H1785       H  0.97840903  0.21174743  0.92449138     0.02400
H1786       H  0.97991330  0.18074554  0.91530171     0.05900
H1787       H  0.00393971  0.27443792  0.94056367     0.04900
H1788       H  0.02472430  0.25996524  0.91147430    -0.00900
H1789       H  0.00412218  0.24288895  0.93774925     0.00600
H1790       H  0.95377655  0.26522580  0.77301943     0.04300
H1791       H  0.93033734  0.27844602  0.79871418     0.06200
H1792       H  0.93271857  0.24714509  0.79677131     0.07100
C1793       C  0.95481615  0.12958917  0.61457910    -0.22600
C1794       C  0.96659973  0.10840535  0.60768977     0.09400
C1795       C  0.96006862  0.09442606  0.57784767     0.09800
C1796       C  0.94211796  0.10228295  0.55496742    -0.17500
C1797       C  0.93091181  0.12394124  0.56096961    -0.27900
C1798       C  0.93713465  0.13768984  0.59141180     0.18100
C1799       C  0.98540799  0.10113853  0.63271606     0.12100
C1800       C  0.97242616  0.07159862  0.56957601    -0.12200
H1801       H  0.93726316  0.09178397  0.53165225     0.12400
C1802       C  0.92483692  0.16049094  0.60025301    -0.23100
H1803       H  0.95964361  0.13988643  0.63812953     0.08000
C1804       C  0.00691202  0.11341673  0.63437194     0.04400
C1805       C  0.02319775  0.10737874  0.66112275    -0.20300
C1806       C  0.01840684  0.08948744  0.68622644    -0.12600
C1807       C  0.99726532  0.07661091  0.68368148     0.13100
C1808       C  0.98097172  0.08263690  0.65684235    -0.23000
C1809       C  0.01254970  0.13309881  0.60841137    -0.06100
H1810       H  0.03940939  0.11726067  0.66338052     0.14600
C1811       C  0.99117472  0.05757516  0.71046678    -0.16300
H1812       H  0.96428122  0.07351113  0.65551551     0.08900
H1813       H  0.93093588  0.16796692  0.62638032     0.06800
H1814       H  0.90563059  0.15744033  0.60233067     0.08000
H1815       H  0.92842453  0.17380024  0.57901486     0.07000
H1816       H  0.96993600  0.05897558  0.59214712     0.01900
H1817       H  0.99147095  0.07491099  0.56572861     0.02400
H1818       H  0.96552296  0.06326496  0.54456645     0.05900
H1819       H  0.03046455  0.14024306  0.61295319     0.04900
H1820       H  0.99991855  0.14778832  0.61189275    -0.00900
H1821       H  0.01157769  0.12649617  0.58019001     0.00600
H1822       H  0.97353850  0.04998106  0.70516904     0.04300
H1823       H  0.99116953  0.06490110  0.73831494     0.06200
H1824       H  0.00419715  0.04309605  0.70862943     0.07100
C1825       C  0.12912193  0.89539209  0.76506988    -0.22600
C1826       C  0.13631831  0.91747740  0.75226115     0.09400
C1827       C  0.15135944  0.91879886  0.72204002     0.09800
C1828       C  0.15767954  0.89806223  0.70384143    -0.17500
C1829       C  0.14892511  0.87602280  0.71472269    -0.27900
C1830       C  0.13523341  0.87458815  0.74666008     0.18100
C1831       C  0.12628045  0.93913128  0.76857181     0.12100
C1832       C  0.15975379  0.94222611  0.70793247    -0.12200
H1833       H  0.16816311  0.89930023  0.67944280     0.12400
C1834       C  0.12709733  0.85126089  0.76152721    -0.23100
H1835       H  0.11787832  0.89453779  0.78868695     0.08000
C1836       C  0.10427904  0.94779023  0.75730969     0.04400
C1837       C  0.09607022  0.96924746  0.77115810    -0.20300
C1838       C  0.10950361  0.98276543  0.79551103    -0.12600
C1839       C  0.13159525  0.97382369  0.80695916     0.13100
C1840       C  0.13956784  0.95205214  0.79347461    -0.23000
C1841       C  0.08981355  0.93477645  0.72963240    -0.06100
H1842       H  0.07915761  0.97574975  0.76217224     0.14600
C1843       C  0.14736172  0.98728280  0.83218717    -0.16300
H1844       H  0.15656123  0.94530479  0.80164289     0.08900
H1845       H  0.11830630  0.85335332  0.78815078     0.06800
H1846       H  0.14241058  0.83940781  0.76528802     0.08000
H1847       H  0.11428297  0.84293277  0.74296067     0.07000
H1848       H  0.17000410  0.95142549  0.72919611     0.01900
H1849       H  0.14447978  0.95327760  0.70017884     0.02400
H1850       H  0.17117554  0.94017621  0.68379196     0.05900
H1851       H  0.07319682  0.94416158  0.72335807     0.04900
H1852       H  0.08529558  0.91699565  0.73995586    -0.00900
H1853       H  0.09993371  0.93298566  0.70410768     0.00600
H1854       H  0.16460201  0.97844783  0.83579819     0.04300
H1855       H  0.13899089  0.98833625  0.85916602     0.06200
H1856       H  0.15073346  0.00519199  0.82130492     0.07100
C1857       C  0.03900694  0.99703114  0.00893614    -0.22600
C1858       C  0.01743285  0.98623421  0.00105993     0.09400
C1859       C  0.00834738  0.98751683  0.96569360     0.09800
C1860       C  0.02032908  0.00067801  0.93949919    -0.17500
C1861       C  0.04133454  0.01259132  0.94759066    -0.27900
C1862       C  0.05113881  0.01025895  0.98268757     0.18100
C1863       C  0.00462116  0.97323763  0.02977986     0.12100
C1864       C  0.98594252  0.97500885  0.95562228    -0.12200
H1865       H  0.01288087  0.00222809  0.91260714     0.12400
C1866       C  0.07354602  0.02221268  0.99428611    -0.23100
H1867       H  0.04612770  0.99562733  0.03605157     0.08000
C1868       C  0.01147689  0.95039209  0.03993037     0.04400
C1869       C  0.99781179  0.93793281  0.06489956    -0.20300
C1870       C  0.97745304  0.94773948  0.08066008    -0.12600
C1871       C  0.97058621  0.97071796  0.07038373     0.13100
C1872       C  0.98432634  0.98320198  0.04510625    -0.23000
C1873       C  0.03308919  0.93902710  0.02412439    -0.06100
H1874       H  0.00322683  0.92028207  0.07227899     0.14600
C1875       C  0.94922257  0.98233660  0.08634059    -0.16300
H1876       H  0.97913009  0.00077317  0.03693016     0.08900
H1877       H  0.08655871  0.00867123  0.00251282     0.06800
H1878       H  0.06992066  0.03382032  0.01779234     0.08000
H1879       H  0.08162429  0.03325761  0.97308878     0.07000
H1880       H  0.97110040  0.98205432  0.97176707     0.01900
H1881       H  0.98779845  0.95585789  0.96098219     0.02400
H1882       H  0.98160130  0.97734372  0.92655960     0.05900
H1883       H  0.03568674  0.92085857  0.03450734     0.04900
H1884       H  0.04886586  0.94949347  0.03130996    -0.00900
H1885       H  0.03149371  0.93809891  0.99422885     0.00600
H1886       H  0.94705745  0.00065078  0.07634533     0.04300
H1887       H  0.95076720  0.98298091  0.11626601     0.06200
H1888       H  0.93327316  0.97231408  0.07864248     0.07100
C1889       C  0.11878824  0.24412147  0.64925434    -0.22600
C1890       C  0.12973229  0.22204546  0.64685330     0.09400
C1891       C  0.14652600  0.21792108  0.61952882     0.09800
C1892       C  0.15216410  0.23604672  0.59527771    -0.17500
C1893       C  0.14078280  0.25790624  0.59692231    -0.27900
C1894       C  0.12387004  0.26204867  0.62418862     0.18100
C1895       C  0.12292748  0.20313152  0.67241852     0.12100
C1896       C  0.15803426  0.19418815  0.61541907    -0.12200
H1897       H  0.16463726  0.23274380  0.57370709     0.12400
C1898       C  0.11124384  0.28530572  0.62684755    -0.23100
H1899       H  0.10585202  0.24709840  0.67026417     0.08000
C1900       C  0.13387898  0.20068752  0.70642064     0.04400
C1901       C  0.12765188  0.18171920  0.72892057    -0.20300
C1902       C  0.11067085  0.16521184  0.71808294    -0.12600
C1903       C  0.10000646  0.16753943  0.68361791     0.13100
C1904       C  0.10606527  0.18666314  0.66150573    -0.23000
C1905       C  0.15215059  0.21808584  0.71873710    -0.06100
H1906       H  0.13581650  0.17994347  0.75526709     0.14600
C1907       C  0.08296224  0.14974023  0.66846693    -0.16300
H1908       H  0.09801498  0.18841481  0.63505664     0.08900
H1909       H  0.09921525  0.28583419  0.65048393     0.06800
H1910       H  0.10059828  0.28838189  0.60215758     0.08000
H1911       H  0.12421913  0.29975936  0.62986061     0.07000
H1912       H  0.14448909  0.18058731  0.60998019     0.01900
H1913       H  0.16758530  0.18959456  0.64061721     0.02400
H1914       H  0.17076765  0.19396101  0.59266978     0.05900
H1915       H  0.15907858  0.21362846  0.74596696     0.04900
H1916       H  0.14435825  0.23598766  0.71999967    -0.00900
H1917       H  0.16707083  0.21819995  0.69941253     0.00600
H1918       H  0.06557909  0.15817441  0.66439343     0.04300
H1919       H  0.08065168  0.13403530  0.68583396     0.06200
H1920       H  0.08950996  0.14331236  0.64195409     0.07100
C1921       C  0.16201987  0.10842802  0.01294136    -0.22600
C1922       C  0.18391639  0.10028009  0.00093149     0.09400
C1923       C  0.18492470  0.08468110  0.97119641     0.09800
C1924       C  0.16414128  0.07872900  0.95295819    -0.17500
C1925       C  0.14250568  0.08878951  0.96266892    -0.27900
C1926       C  0.14135510  0.10341746  0.99367278     0.18100
C1927       C  0.20560429  0.11038705  0.01711939     0.12100
C1928       C  0.20801925  0.07552631  0.95710388    -0.12200
H1929       H  0.16513126  0.06766946  0.92910902     0.12400
C1930       C  0.11859092  0.11422533  0.00623102    -0.23100
H1931       H  0.16133107  0.12001672  0.03621200     0.08000
C1932       C  0.21181906  0.13416612  0.01115437     0.04400
C1933       C  0.23313199  0.14272442  0.02483911    -0.20300
C1934       C  0.24870860  0.12813784  0.04400704    -0.12600
C1935       C  0.24240835  0.10431048  0.05005904     0.13100
C1936       C  0.22081153  0.09584727  0.03689232    -0.23000
C1937       C  0.19647793  0.15037823  0.98909496    -0.06100
H1938       H  0.23789570  0.16092947  0.01992504     0.14600
C1939       C  0.25868077  0.08739860  0.06881707    -0.16300
H1940       H  0.21594042  0.07763393  0.04138704     0.08900
H1941       H  0.11227377  0.12739337  0.98633635     0.06800
H1942       H  0.12071335  0.12351597  0.03246515     0.08000
H1943       H  0.10515465  0.10026796  0.00984910     0.07000
H1944       H  0.21674638  0.06462633  0.97804950     0.01900
H1945       H  0.21959934  0.09050139  0.94972411     0.02400
H1946       H  0.20565466  0.06438373  0.93268297     0.05900
H1947       H  0.20459836  0.16801154  0.98560439     0.04900
H1948       H  0.17932537  0.15295072  0.00271062    -0.00900
H1949       H  0.19358222  0.14274657  0.96180586     0.00600
H1950       H  0.25177694  0.06911045  0.06835944     0.04300
H1951       H  0.26057553  0.09259820  0.09748522     0.06200
H1952       H  0.27608777  0.08735849  0.05528983     0.07100
C1953       C  0.97585153  0.72274368  0.64401065    -0.22600
C1954       C  0.99514747  0.71861660  0.62153620     0.09400
C1955       C  0.99533445  0.69871158  0.59870011     0.09800
C1956       C  0.97546694  0.68408723  0.59730839    -0.17500
C1957       C  0.95562758  0.68876848  0.61867450    -0.27900
C1958       C  0.95601345  0.70816707  0.64286030     0.18100
C1959       C  0.01419754  0.73631803  0.62043353     0.12100
C1960       C  0.01619504  0.69340469  0.57503262    -0.12200
H1961       H  0.97502811  0.66949152  0.57843796     0.12400
C1962       C  0.93541587  0.71517775  0.66614937    -0.23100
H1963       H  0.97586914  0.73808126  0.66148881     0.08000
C1964       C  0.01302001  0.75587399  0.59693711     0.04400
C1965       C  0.03204241  0.77153535  0.59518570    -0.20300
C1966       C  0.05216030  0.76808451  0.61644210    -0.12600
C1967       C  0.05312282  0.74860057  0.64040168     0.13100
C1968       C  0.03396282  0.73313291  0.64233706    -0.23000
C1969       C  0.99198728  0.75976160  0.57295236    -0.06100
H1970       H  0.03160148  0.78607209  0.57617791     0.14600
C1971       C  0.07448020  0.74259232  0.66268173    -0.16300
H1972       H  0.03477732  0.71798693  0.66016068     0.08900
H1973       H  0.92938315  0.73305961  0.65829967     0.06800
H1974       H  0.94093702  0.71552729  0.69494462     0.08000
H1975       H  0.92024885  0.70316901  0.66406036     0.07000
H1976       H  0.03197548  0.69066172  0.59215003     0.01900
H1977       H  0.01943745  0.70832949  0.55629558     0.02400
H1978       H  0.01340986  0.67727599  0.55859258     0.05900
H1979       H  0.99399100  0.77576701  0.55596201     0.04900
H1980       H  0.97600420  0.76191883  0.58980675    -0.00900
H1981       H  0.98962121  0.74442438  0.55469642     0.00600
H1982       H  0.06960498  0.74205554  0.69174129     0.04300
H1983       H  0.08901390  0.75531483  0.65966674     0.06200
H1984       H  0.08115662  0.72499103  0.65457379     0.07100
C1985       C  0.66555158  0.60335119  0.51425346    -0.22600
C1986       C  0.68760633  0.59746482  0.49987863     0.09400
C1987       C  0.68874278  0.58485591  0.46702206     0.09800
C1988       C  0.66793715  0.57985568  0.44808822    -0.17500
C1989       C  0.64598039  0.58754530  0.46084190    -0.27900
C1990       C  0.64470057  0.59859550  0.49508245     0.18100
C1991       C  0.70921423  0.60733971  0.51686109     0.12100
C1992       C  0.71200685  0.57776063  0.45100654    -0.12200
H1993       H  0.66900233  0.57126973  0.42194515     0.12400
C1994       C  0.62144920  0.60530706  0.51150049    -0.23100
H1995       H  0.66475070  0.61272971  0.53975226     0.08000
C1996       C  0.71606957  0.63077534  0.50987775     0.04400
C1997       C  0.73716740  0.63937103  0.52438694    -0.20300
C1998       C  0.75190607  0.62518789  0.54579973    -0.12600
C1999       C  0.74494423  0.60161498  0.55290388     0.13100
C2000       C  0.72366466  0.59303340  0.53836702    -0.23000
C2001       C  0.70137591  0.64659587  0.48621401    -0.06100
H2002       H  0.74232174  0.65735313  0.51859855     0.14600
C2003       C  0.76019516  0.58509393  0.57438585    -0.16300
H2004       H  0.71843670  0.57496261  0.54326033     0.08900
H2005       H  0.61277304  0.61906858  0.49496860     0.06800
H2006       H  0.62359342  0.61240801  0.53929558     0.08000
H2007       H  0.60994958  0.58955114  0.51306437     0.07000
H2008       H  0.72136401  0.56586856  0.46997916     0.01900
H2009       H  0.72291115  0.59363930  0.44605004     0.02400
H2010       H  0.70981100  0.56834247  0.42489372     0.05900
H2011       H  0.70946672  0.66425263  0.48287192     0.04900
H2012       H  0.68375198  0.64902983  0.49844665    -0.00900
H2013       H  0.69942248  0.63860656  0.45896613     0.00600
H2014       H  0.75274837  0.56702728  0.57529192     0.04300
H2015       H  0.76162334  0.59144784  0.60261688     0.06200
H2016       H  0.77791663  0.58400430  0.56198847     0.07100
C2017       C  0.85191952  0.73809282  0.38821670    -0.22600
C2018       C  0.87060148  0.75404071  0.39116841     0.09400
C2019       C  0.88461923  0.75408890  0.42255206     0.09800
C2020       C  0.87992946  0.73783626  0.45006126    -0.17500
C2021       C  0.86149138  0.72142921  0.44721176    -0.27900
C2022       C  0.84712872  0.72173196  0.41587667     0.18100
C2023       C  0.87541010  0.77069313  0.36125962     0.12100
C2024       C  0.90449399  0.77138917  0.42712607    -0.12200
H2025       H  0.89078972  0.73804650  0.47412028     0.12400
C2026       C  0.82729850  0.70450460  0.41072963    -0.23100
H2027       H  0.84121970  0.73832758  0.36397784     0.08000
C2028       C  0.89279374  0.76592573  0.33517110     0.04400
C2029       C  0.89891388  0.78347117  0.31018245    -0.20300
C2030       C  0.88769977  0.80558494  0.31004904    -0.12600
C2031       C  0.86930392  0.80977249  0.33516900     0.13100
C2032       C  0.86356519  0.79228515  0.36060788    -0.23000
C2033       C  0.90485732  0.74231430  0.33373915    -0.06100
H2034       H  0.91264311  0.77987665  0.29064378     0.14600
C2035       C  0.85621850  0.83281618  0.33650351    -0.16300
H2036       H  0.85014137  0.79564752  0.38074293     0.08900
H2037       H  0.81884259  0.70654652  0.38384146     0.06800
H2038       H  0.81358500  0.70745219  0.43156001     0.08000
H2039       H  0.83405126  0.68620864  0.41272064     0.07000
H2040       H  0.89758552  0.78964622  0.42583199     0.01900
H2041       H  0.91768825  0.76893330  0.40538937     0.02400
H2042       H  0.91355860  0.76912644  0.45350097     0.05900
H2043       H  0.91791364  0.74144715  0.31146191     0.04900
H2044       H  0.89161391  0.72827873  0.32921346    -0.00900
H2045       H  0.91416401  0.73879573  0.35953145     0.00600
H2046       H  0.84320207  0.83321122  0.35886771     0.04300
H2047       H  0.84644452  0.83554209  0.31087578     0.06200
H2048       H  0.86874414  0.84751157  0.34086806     0.07100
C2049       C  0.96999420  0.62344766  0.44760223    -0.22600
C2050       C  0.96543722  0.60542196  0.42278183     0.09400
C2051       C  0.94418130  0.59271761  0.42554754     0.09800
C2052       C  0.92719884  0.59959452  0.45130214    -0.17500
C2053       C  0.93112803  0.61865105  0.47493519    -0.27900
C2054       C  0.95338173  0.63005676  0.47385909     0.18100
C2055       C  0.98295038  0.60103564  0.39346786     0.12100
C2056       C  0.93961310  0.57169587  0.40173913    -0.12200
H2057       H  0.91059671  0.59031488  0.45246497     0.12400
C2058       C  0.96023020  0.64880417  0.50080290    -0.23100
H2059       H  0.98660859  0.63269945  0.44598816     0.08000
C2060       C  0.98044815  0.61152675  0.35904722     0.04400
C2061       C  0.99825175  0.60868295  0.33307804    -0.20300
C2062       C  0.01867890  0.59554229  0.34033026    -0.12600
C2063       C  0.02117162  0.58500203  0.37489291     0.13100
C2064       C  0.00334432  0.58802624  0.40105285    -0.23000
C2065       C  0.95923533  0.62625748  0.34990032    -0.06100
H2066       H  0.99609706  0.61671935  0.30668708     0.14600
C2067       C  0.04287993  0.57132632  0.38487570    -0.16300
H2068       H  0.00540321  0.58040755  0.42774400     0.08900
H2069       H  0.94979773  0.66501395  0.49633753     0.06800
H2070       H  0.97901406  0.65378426  0.49822535     0.08000
H2071       H  0.95746178  0.64219405  0.52875027     0.07000
H2072       H  0.95342305  0.55823392  0.40638763     0.01900
H2073       H  0.93984450  0.57687568  0.37283943     0.02400
H2074       H  0.92230875  0.56354579  0.40763077     0.05900
H2075       H  0.96024258  0.63347052  0.32201365     0.04900
H2076       H  0.95790787  0.64128117  0.36898944    -0.00900
H2077       H  0.94304477  0.61551085  0.35181148     0.00600
H2078       H  0.05867243  0.58250967  0.38102954     0.04300
H2079       H  0.04431148  0.55533143  0.36780090     0.06200
H2080       H  0.04246817  0.56551647  0.41355805     0.07100
C2081       C  0.89846351  0.52482267  0.76378897    -0.22600
C2082       C  0.87568243  0.53038532  0.77524375     0.09400
C2083       C  0.86373690  0.51472049  0.79844548     0.09800
C2084       C  0.87463398  0.49349930  0.80883189    -0.17500
C2085       C  0.89719293  0.48743735  0.79632585    -0.27900
C2086       C  0.90944063  0.50370326  0.77402010     0.18100
C2087       C  0.86457831  0.55211449  0.76049620     0.12100
C2088       C  0.83959818  0.52049379  0.81241358    -0.12200
H2089       H  0.86520052  0.48130331  0.82606776     0.12400
C2090       C  0.93423479  0.49934006  0.76126616    -0.23100
H2091       H  0.90756421  0.53698753  0.74605466     0.08000
C2092       C  0.87252776  0.57475365  0.77029713     0.04400
C2093       C  0.86562493  0.59436362  0.74959418    -0.20300
C2094       C  0.85049055  0.59198594  0.71968402    -0.12600
C2095       C  0.84044889  0.56956100  0.71267782     0.13100
C2096       C  0.84791337  0.54991040  0.73282795    -0.23000
C2097       C  0.88859807  0.57810592  0.80223329    -0.06100
H2098       H  0.87297472  0.61150367  0.75575643     0.14600
C2099       C  0.82280605  0.56580566  0.68291875    -0.16300
H2100       H  0.84159700  0.53250274  0.72576696     0.08900
H2101       H  0.94163754  0.51492423  0.74713959     0.06800
H2102       H  0.93465167  0.48448941  0.74180122     0.08000
H2103       H  0.94573264  0.49541465  0.78476279     0.07000
H2104       H  0.82710499  0.52213952  0.78953248     0.01900
H2105       H  0.84015041  0.53737596  0.82753432     0.02400
H2106       H  0.83291876  0.50661722  0.83091413     0.05900
H2107       H  0.89260047  0.59699831  0.80691928     0.04900
H2108       H  0.90542606  0.56872851  0.79772646    -0.00900
H2109       H  0.88006027  0.57103151  0.82696122     0.00600
H2110       H  0.81731640  0.54708690  0.68088460     0.04300
H2111       H  0.83036533  0.57101704  0.65643036     0.06200
H2112       H  0.80687009  0.57634026  0.68877103     0.07100
C2113       C  0.51168526  0.76640099  0.92817375    -0.22600
C2114       C  0.51410068  0.74425903  0.91188940     0.09400
C2115       C  0.53565568  0.73755164  0.89631265     0.09800
C2116       C  0.55476622  0.75299538  0.89848048    -0.17500
C2117       C  0.55266446  0.77466264  0.91632411    -0.27900
C2118       C  0.53090095  0.78165020  0.93096264     0.18100
C2119       C  0.49413439  0.72790103  0.91357489     0.12100
C2120       C  0.53857467  0.71392612  0.87834344    -0.12200
H2121       H  0.57169796  0.74767778  0.88785117     0.12400
C2122       C  0.52811175  0.80496571  0.94994219    -0.23100
H2123       H  0.49494962  0.77133288  0.93990962     0.08000
C2124       C  0.49130931  0.71256424  0.94322062     0.04400
C2125       C  0.47111871  0.69864337  0.94528056    -0.20300
C2126       C  0.45360299  0.69999087  0.91865020    -0.12600
C2127       C  0.45666205  0.71518193  0.88866051     0.13100
C2128       C  0.47706701  0.72889235  0.88642523    -0.23000
C2129       C  0.50920074  0.71148075  0.97323206    -0.06100
H2130       H  0.46862597  0.68715251  0.96839678     0.14600
C2131       C  0.43798725  0.71810320  0.86016646    -0.16300
H2132       H  0.47943317  0.74099162  0.86403491     0.08900
H2133       H  0.50975835  0.80784593  0.95907720     0.06800
H2134       H  0.53291744  0.81947545  0.93122155     0.08000
H2135       H  0.53966517  0.80564650  0.97409343     0.07000
H2136       H  0.52607717  0.71238733  0.85542956     0.01900
H2137       H  0.53504229  0.69960858  0.89803046     0.02400
H2138       H  0.55663678  0.71148968  0.86766920     0.05900
H2139       H  0.50408111  0.69868537  0.99454791     0.04900
H2140       H  0.51096655  0.72906873  0.98604544    -0.00900
H2141       H  0.52648579  0.70601430  0.96225927     0.00600
H2142       H  0.44288374  0.73164504  0.83984184     0.04300
H2143       H  0.42125762  0.72368544  0.87298581     0.06200
H2144       H  0.43540248  0.70123298  0.84559591     0.07100
C2145       C  0.65757694  0.72928699  0.13699965    -0.22600
C2146       C  0.63474630  0.72669532  0.15074691     0.09400
C2147       C  0.61702378  0.74245210  0.13938493     0.09800
C2148       C  0.62233639  0.75965463  0.11351367    -0.17500
C2149       C  0.64466297  0.76113391  0.09746868    -0.27900
C2150       C  0.66272386  0.74598190  0.10999599     0.18100
C2151       C  0.62938592  0.70660431  0.17528963     0.12100
C2152       C  0.59209712  0.74041871  0.15278160    -0.12200
H2153       H  0.60852034  0.77139090  0.10446347     0.12400
C2154       C  0.68699729  0.74620492  0.09378330    -0.23100
H2155       H  0.67121999  0.71748126  0.14641821     0.08000
C2156       C  0.63030629  0.68297787  0.16309122     0.04400
C2157       C  0.62389267  0.66469485  0.18674538    -0.20300
C2158       C  0.61574629  0.66950567  0.22173829    -0.12600
C2159       C  0.61474252  0.69308422  0.23391524     0.13100
C2160       C  0.62208973  0.71128082  0.21081751    -0.23000
C2161       C  0.63713150  0.67700126  0.12477092    -0.06100
H2162       H  0.62450828  0.64658439  0.17752798     0.14600
C2163       C  0.60619112  0.69908837  0.27138875    -0.16300
H2164       H  0.62174123  0.72933532  0.22028415     0.08900
H2165       H  0.68594293  0.74259877  0.06430962     0.06800
H2166       H  0.69848125  0.73255525  0.10604231     0.08000
H2167       H  0.69539731  0.76356893  0.09846050     0.07000
H2168       H  0.59132556  0.74379713  0.18228043     0.01900
H2169       H  0.58522709  0.72252319  0.14696960     0.02400
H2170       H  0.58031814  0.75337104  0.13944213     0.05900
H2171       H  0.63562727  0.65782363  0.11935948     0.04900
H2172       H  0.65559955  0.68215243  0.11961924    -0.00900
H2173       H  0.62543012  0.68638229  0.10554841     0.00600
H2174       H  0.60720928  0.71830043  0.27679796     0.04300
H2175       H  0.61709487  0.68986226  0.29185465     0.06200
H2176       H  0.58758599  0.69366942  0.27454278     0.07100
C2177       C  0.79021559  0.83958618  0.02277157    -0.22600
C2178       C  0.79776358  0.86212929  0.01308267     0.09400
C2179       C  0.78451032  0.87528175  0.98788981     0.09800
C2180       C  0.76322329  0.86599087  0.97446968    -0.17500
C2181       C  0.75491580  0.84380837  0.98570597    -0.27900
C2182       C  0.76910046  0.83021626  0.00961745     0.18100
C2183       C  0.81951094  0.87121991  0.03054991     0.12100
C2184       C  0.79292926  0.89896911  0.97503043    -0.12200
H2185       H  0.75269644  0.87641605  0.95603717     0.12400
C2186       C  0.76247873  0.80564293  0.02141148    -0.23100
H2187       H  0.80076032  0.82943107  0.04157015     0.08000
C2188       C  0.81858257  0.88486564  0.06248834     0.04400
C2189       C  0.83945249  0.88992543  0.08134464    -0.20300
C2190       C  0.86112431  0.88057889  0.07020903    -0.12600
C2191       C  0.86207376  0.86734117  0.03766541     0.13100
C2192       C  0.84129405  0.86307104  0.01813458    -0.23000
C2193       C  0.79542207  0.89266165  0.07814251    -0.06100
H2194       H  0.83856447  0.89974622  0.10644929     0.14600
C2195       C  0.88486133  0.85754535  0.02334039    -0.16300
H2196       H  0.84185035  0.85233931  0.99390027     0.08900
H2197       H  0.74705266  0.80616343  0.03968778     0.06800
H2198       H  0.77686951  0.79696356  0.03668864     0.08000
H2199       H  0.75866620  0.79460445  0.99734365     0.07000
H2200       H  0.81032974  0.89702273  0.96184560     0.01900
H2201       H  0.79461018  0.91129427  0.99812371     0.02400
H2202       H  0.78062264  0.90686730  0.95513835     0.05900
H2203       H  0.79779946  0.90278726  0.10357970     0.04900
H2204       H  0.78443997  0.87701734  0.08430712    -0.00900
H2205       H  0.78595855  0.90405155  0.05866364     0.00600
H2206       H  0.89182009  0.84383428  0.04180198     0.04300
H2207       H  0.89790423  0.87194434  0.02043686     0.06200
H2208       H  0.88252907  0.84919272  0.99641185     0.07100
C2209       C  0.74888267  0.73916308  0.81825394    -0.22600
C2210       C  0.74808118  0.74681917  0.78233129     0.09400
C2211       C  0.73616553  0.76797220  0.77393033     0.09800
C2212       C  0.72468223  0.78057832  0.80169050    -0.17500
C2213       C  0.72465723  0.77231043  0.83754314    -0.27900
C2214       C  0.73746448  0.75154746  0.84592518     0.18100
C2215       C  0.76114644  0.73277961  0.75485805     0.12100
C2216       C  0.73542237  0.77707571  0.73572711    -0.12200
H2217       H  0.71480028  0.79631188  0.79508373     0.12400
C2218       C  0.73945977  0.74230518  0.88408572    -0.23100
H2219       H  0.75845578  0.72318504  0.82460671     0.08000
C2220       C  0.78582439  0.73363300  0.75339845     0.04400
C2221       C  0.79787734  0.71874066  0.72954388    -0.20300
C2222       C  0.78603839  0.70333578  0.70580870    -0.12600
C2223       C  0.76112825  0.70280440  0.70681984     0.13100
C2224       C  0.74907636  0.71720633  0.73187488    -0.23000
C2225       C  0.79946876  0.75079973  0.77635278    -0.06100
H2226       H  0.81688098  0.71968714  0.72861218     0.14600
C2227       C  0.74653152  0.68839378  0.68105239    -0.16300
H2228       H  0.73007148  0.71656730  0.73307948     0.08900
H2229       H  0.75213619  0.72749009  0.88595756     0.06800
H2230       H  0.72230076  0.73550908  0.89354980     0.08000
H2231       H  0.74566109  0.75651012  0.90236734     0.07000
H2232       H  0.72666527  0.76399411  0.71796940     0.01900
H2233       H  0.75356315  0.78016372  0.72583462     0.02400
H2234       H  0.72557768  0.79391631  0.73381515     0.05900
H2235       H  0.81862632  0.74974791  0.77103290     0.04900
H2236       H  0.79659046  0.74703763  0.80546101    -0.00900
H2237       H  0.79361830  0.76904143  0.77033844     0.00600
H2238       H  0.73582279  0.67556556  0.69658016     0.04300
H2239       H  0.75701894  0.67856530  0.66096099     0.06200
H2240       H  0.73455860  0.70022126  0.66581684     0.07100
C2241       C  0.49162910  0.76329046  0.40137914    -0.22600
C2242       C  0.48935849  0.74469410  0.37671444     0.09400
C2243       C  0.47079405  0.74489367  0.35143819     0.09800
C2244       C  0.45552966  0.76424513  0.35027794    -0.17500
C2245       C  0.45844996  0.78350017  0.37362574    -0.27900
C2246       C  0.47652132  0.78286700  0.39991616     0.18100
C2247       C  0.50754083  0.72600977  0.37564742     0.12100
C2248       C  0.46768993  0.72511698  0.32469491    -0.12200
H2249       H  0.44197811  0.76492516  0.32975535     0.12400
C2250       C  0.48109451  0.80350838  0.42453891    -0.23100
H2251       H  0.50600644  0.76300838  0.42057652     0.08000
C2252       C  0.52733988  0.72802429  0.35284752     0.04400
C2253       C  0.54248992  0.70868581  0.34869782    -0.20300
C2254       C  0.53849272  0.68755834  0.36732845    -0.12600
C2255       C  0.51917980  0.68591922  0.39133915     0.13100
C2256       C  0.50396182  0.70523899  0.39528545    -0.23000
C2257       C  0.53208399  0.75038976  0.33219256    -0.06100
H2258       H  0.55714656  0.70980523  0.33007192     0.14600
C2259       C  0.51375019  0.66339791  0.41118988    -0.16300
H2260       H  0.48866673  0.70383611  0.41259949     0.08900
H2261       H  0.48519792  0.81937755  0.40820650     0.06800
H2262       H  0.49619677  0.80020868  0.44285245     0.08000
H2263       H  0.46541342  0.80695448  0.44154170     0.07000
H2264       H  0.46479411  0.70832418  0.33939535     0.01900
H2265       H  0.48360563  0.72347182  0.30755841     0.02400
H2266       H  0.45241645  0.72815761  0.30660395     0.05900
H2267       H  0.54830330  0.74904004  0.31564723     0.04900
H2268       H  0.53428043  0.76523647  0.35143119    -0.00900
H2269       H  0.51719981  0.75428917  0.31376689     0.00600
H2270       H  0.52875682  0.65849198  0.42877906     0.04300
H2271       H  0.51035988  0.64906598  0.39148495     0.06200
H2272       H  0.49794516  0.66517935  0.42857962     0.07100
C2273       C  0.35016350  0.05175269  0.22390297    -0.22600
C2274       C  0.36721464  0.05365846  0.25099196     0.09400
C2275       C  0.37698836  0.07596392  0.25855995     0.09800
C2276       C  0.37033345  0.09559723  0.23762080    -0.17500
C2277       C  0.35414968  0.09358777  0.20896135    -0.27900
C2278       C  0.34352624  0.07126595  0.20275226     0.18100
C2279       C  0.37710924  0.03156430  0.26664668     0.12100
C2280       C  0.39482615  0.07892892  0.28826880    -0.12200
H2281       H  0.37850881  0.11248902  0.24284117     0.12400
C2282       C  0.32613214  0.06728521  0.17274628    -0.23100
H2283       H  0.34287679  0.03453507  0.21804163     0.08000
C2284       C  0.36517955  0.01786075  0.29266941     0.04400
C2285       C  0.37496139  0.99628433  0.30417366    -0.20300
C2286       C  0.39612359  0.98762432  0.28949196    -0.12600
C2287       C  0.40798061  0.00163893  0.26323518     0.13100
C2288       C  0.39837971  0.02334811  0.25260023    -0.23000
C2289       C  0.34210253  0.02594579  0.30810838    -0.06100
H2290       H  0.36563367  0.98581878  0.32402565     0.14600
C2291       C  0.43088360  0.99427528  0.24615073    -0.16300
H2292       H  0.40727929  0.03386762  0.23231834     0.08900
H2293       H  0.31005192  0.07756988  0.17846880     0.06800
H2294       H  0.32085436  0.04850753  0.17058947     0.08000
H2295       H  0.33384081  0.07254018  0.14636838     0.07000
H2296       H  0.41061093  0.06812457  0.28245841     0.01900
H2297       H  0.38709383  0.07323529  0.31441467     0.02400
H2298       H  0.40049886  0.09755228  0.29103633     0.05900
H2299       H  0.33517440  0.01332339  0.32842974     0.04900
H2300       H  0.32892154  0.02762408  0.28615023    -0.00900
H2301       H  0.34440036  0.04329597  0.32147341     0.00600
H2302       H  0.42824721  0.97840546  0.22913646     0.04300
H2303       H  0.44410315  0.99076297  0.26751007     0.06200
H2304       H  0.43813389  0.00817901  0.22820557     0.07100
C2305       C  0.50669475  0.88603622  0.13911858    -0.22600
C2306       C  0.52116542  0.86615214  0.14029134     0.09400
C2307       C  0.51841958  0.84949563  0.16812125     0.09800
C2308       C  0.50129039  0.85322447  0.19458147    -0.17500
C2309       C  0.48680535  0.87335659  0.19420763    -0.27900
C2310       C  0.48949090  0.88993646  0.16569774     0.18100
C2311       C  0.53898454  0.86273877  0.11184357     0.12100
C2312       C  0.53370557  0.82784155  0.17001221    -0.12200
H2313       H  0.49960900  0.84041398  0.21612254     0.12400
C2314       C  0.47418138  0.91147293  0.16232967    -0.23100
H2315       H  0.50893380  0.89854898  0.11724268     0.08000
C2316       C  0.53375353  0.84992265  0.08026143     0.04400
C2317       C  0.55179232  0.84487439  0.05577172    -0.20300
C2318       C  0.57481393  0.85279642  0.06178701    -0.12600
C2319       C  0.57984049  0.86646392  0.09283896     0.13100
C2320       C  0.56179411  0.87114394  0.11768805    -0.23000
C2321       C  0.50919551  0.84141361  0.07264634    -0.06100
H2322       H  0.54793516  0.83459264  0.03178701     0.14600
C2323       C  0.60425418  0.87528832  0.10068511    -0.16300
H2324       H  0.56553788  0.88096164  0.14216506     0.08900
H2325       H  0.47789436  0.92141845  0.13709796     0.06800
H2326       H  0.47743451  0.92361746  0.18528378     0.08000
H2327       H  0.45542670  0.90617804  0.16171272     0.07000
H2328       H  0.55239796  0.83310637  0.17257020     0.01900
H2329       H  0.53147281  0.81716222  0.14510915     0.02400
H2330       H  0.52919816  0.81657005  0.19356599     0.05900
H2331       H  0.50816470  0.83166332  0.04664885     0.04900
H2332       H  0.49709696  0.85670691  0.07104728    -0.00900
H2333       H  0.50326171  0.82946919  0.09457545     0.00600
H2334       H  0.60980794  0.88780669  0.07930113     0.04300
H2335       H  0.61670170  0.86025777  0.10174883     0.06200
H2336       H  0.60513908  0.88469351  0.12699485     0.07100
C2337       C  0.38232239  0.76098774  0.22000844    -0.22600
C2338       C  0.37787782  0.76504836  0.18319952     0.09400
C2339       C  0.37927790  0.78826648  0.16951253     0.09800
C2340       C  0.38471584  0.80693923  0.19301095    -0.17500
C2341       C  0.38953230  0.80283678  0.22962266    -0.27900
C2342       C  0.38841119  0.77961181  0.24330703     0.18100
C2343       C  0.37274016  0.74484421  0.15877937     0.12100
C2344       C  0.37588306  0.79321535  0.12981727    -0.12200
H2345       H  0.38598895  0.82472602  0.18254590     0.12400
C2346       C  0.39358065  0.77454405  0.28249908    -0.23100
H2347       H  0.38137570  0.74315742  0.23035771     0.08000
C2348       C  0.39084244  0.73037041  0.14534650     0.04400
C2349       C  0.38588996  0.71422983  0.11759850    -0.20300
C2350       C  0.36314691  0.71187682  0.10293842    -0.12600
C2351       C  0.34460247  0.72507023  0.11882195     0.13100
C2352       C  0.34973699  0.74145404  0.14634344    -0.23000
C2353       C  0.41557101  0.73249038  0.15944716    -0.06100
H2354       H  0.40013880  0.70381311  0.10658792     0.14600
C2355       C  0.31955065  0.72289599  0.10620245    -0.16300
H2356       H  0.33586160  0.75237905  0.15734581     0.08900
H2357       H  0.41183399  0.77988091  0.28894679     0.06800
H2358       H  0.39172725  0.75552271  0.28887565     0.08000
H2359       H  0.38124549  0.78454424  0.29995745     0.07000
H2360       H  0.35793327  0.78798894  0.12139206     0.01900
H2361       H  0.38895639  0.78311370  0.11382017     0.02400
H2362       H  0.37817912  0.81219368  0.12348877     0.05900
H2363       H  0.42770649  0.72012147  0.14559012     0.04900
H2364       H  0.41590200  0.72837679  0.18879708    -0.00900
H2365       H  0.42215436  0.75067259  0.15513758     0.00600
H2366       H  0.31328073  0.70458439  0.11033496     0.04300
H2367       H  0.31827845  0.72771090  0.07717351     0.06200
H2368       H  0.30761256  0.73472358  0.12151271     0.07100
C2369       C  0.28830884  0.84310631  0.50738426    -0.22600
C2370       C  0.29532049  0.86509828  0.52056381     0.09400
C2371       C  0.28136759  0.87648037  0.54682272     0.09800
C2372       C  0.26042430  0.86571614  0.55878359    -0.17500
C2373       C  0.25295576  0.84387875  0.54479053    -0.27900
C2374       C  0.26759751  0.83221072  0.51925745     0.18100
C2375       C  0.31730968  0.87552341  0.50567799     0.12100
C2376       C  0.28862794  0.89990521  0.56220307    -0.12200
H2377       H  0.24952093  0.87473972  0.57839625     0.12400
C2378       C  0.26212010  0.80795863  0.50485571    -0.23100
H2379       H  0.29918962  0.83442404  0.48734608     0.08000
C2380       C  0.33941840  0.86545887  0.51319667     0.04400
C2381       C  0.35913115  0.87265446  0.49328082    -0.20300
C2382       C  0.35740678  0.88940490  0.46530627    -0.12600
C2383       C  0.33550111  0.90078934  0.45972801     0.13100
C2384       C  0.31576939  0.89366483  0.48001017    -0.23000
C2385       C  0.34213488  0.84657289  0.54153972    -0.06100
H2386       H  0.37582353  0.86406359  0.49820274     0.14600
C2387       C  0.33230890  0.91943639  0.43121301    -0.16300
H2388       H  0.29873877  0.90134859  0.47437287     0.08900
H2389       H  0.27667843  0.80088664  0.48807394     0.06800
H2390       H  0.24632815  0.80844293  0.48734484     0.08000
H2391       H  0.25941997  0.79559781  0.52773224     0.07000
H2392       H  0.28944605  0.91326369  0.54033049     0.01900
H2393       H  0.30618365  0.89830077  0.57501868     0.02400
H2394       H  0.27603526  0.90622629  0.58297863     0.05900
H2395       H  0.36073463  0.84107662  0.54469312     0.04900
H2396       H  0.33183726  0.83074822  0.53398444    -0.00900
H2397       H  0.33585271  0.85328992  0.56802377     0.00600
H2398       H  0.31394349  0.92597669  0.43019029     0.04300
H2399       H  0.33668791  0.91221641  0.40413447     0.06200
H2400       H  0.34378322  0.93467040  0.43749911     0.07100
C2401       C  0.51006584  0.21708332  0.63750113    -0.22600
C2402       C  0.51267295  0.23444728  0.66413841     0.09400
C2403       C  0.53100630  0.23255335  0.68967510     0.09800
C2404       C  0.54503682  0.21230783  0.68990914    -0.17500
C2405       C  0.54151056  0.19417652  0.66473099    -0.27900
C2406       C  0.52451502  0.19703810  0.63718571     0.18100
C2407       C  0.49505959  0.25354250  0.66678867     0.12100
C2408       C  0.53559957  0.25173653  0.71695760    -0.12200
H2409       H  0.55830099  0.21019518  0.71069937     0.12400
C2410       C  0.52074731  0.17854973  0.60859736    -0.23100
H2411       H  0.49609919  0.21880247  0.61776933     0.08000
C2412       C  0.49441393  0.27239502  0.64199225     0.04400
C2413       C  0.47882149  0.29111383  0.64810442    -0.20300
C2414       C  0.46418451  0.29149119  0.67869248    -0.12600
C2415       C  0.46397986  0.27198582  0.70242960     0.13100
C2416       C  0.47929046  0.25312845  0.69592339    -0.23000
C2417       C  0.51079353  0.27324038  0.61003823    -0.06100
H2418       H  0.47893675  0.30610989  0.62994903     0.14600
C2419       C  0.44754312  0.27083749  0.73434712    -0.16300
H2420       H  0.47955215  0.23826836  0.71433684     0.08900
H2421       H  0.50618255  0.18330897  0.59000682     0.06800
H2422       H  0.51639807  0.16141293  0.62140542     0.08000
H2423       H  0.53692980  0.17673888  0.59214610     0.07000
H2424       H  0.52027906  0.25384058  0.73517808     0.01900
H2425       H  0.53893248  0.26860821  0.70267141     0.02400
H2426       H  0.55115193  0.24773140  0.73400751     0.05900
H2427       H  0.50843533  0.28961396  0.59400935     0.04900
H2428       H  0.50737668  0.25805776  0.59190803    -0.00900
H2429       H  0.52927346  0.27256705  0.61952603     0.00600
H2430       H  0.44885563  0.25369607  0.74868045     0.04300
H2431       H  0.42915258  0.27300500  0.72497641     0.06200
H2432       H  0.45180690  0.28484741  0.75414121     0.07100
C2433       C  0.50373015  0.12058111  0.89384448    -0.22600
C2434       C  0.48327380  0.10688686  0.89363847     0.09400
C2435       C  0.48089929  0.08864387  0.86792549     0.09800
C2436       C  0.49891901  0.08483612  0.84251527    -0.17500
C2437       C  0.51886089  0.09940451  0.84140337    -0.27900
C2438       C  0.52144357  0.11727370  0.86785893     0.18100
C2439       C  0.46373513  0.11363723  0.91823051     0.12100
C2440       C  0.45891391  0.07394053  0.86623561    -0.12200
H2441       H  0.49679757  0.07129910  0.82210349     0.12400
C2442       C  0.54281342  0.13293457  0.86890644    -0.23100
H2443       H  0.50540956  0.13454559  0.91366340     0.08000
C2444       C  0.46057781  0.10310171  0.95245074     0.04400
C2445       C  0.44198433  0.11065850  0.97468156    -0.20300
C2446       C  0.42685486  0.12895588  0.96392018    -0.12600
C2447       C  0.43006204  0.13944002  0.92949617     0.13100
C2448       C  0.44852597  0.13170042  0.90727459    -0.23000
C2449       C  0.47720601  0.08442940  0.96590635    -0.06100
H2450       H  0.43960583  0.10266430  0.00106230     0.14600
C2451       C  0.41402524  0.15824439  0.91467152    -0.16300
H2452       H  0.45102722  0.13976609  0.88096317     0.08900
H2453       H  0.54265736  0.14473454  0.89286264     0.06800
H2454       H  0.54344760  0.14429000  0.84453720     0.08000
H2455       H  0.55894317  0.12199608  0.87024921     0.07000
H2456       H  0.44349632  0.08545993  0.86129462     0.01900
H2457       H  0.45636696  0.06438882  0.89209547     0.02400
H2458       H  0.45973957  0.06071870  0.84413633     0.05900
H2459       H  0.47240076  0.07825268  0.99343723     0.04900
H2460       H  0.49529957  0.09165481  0.96702446    -0.00900
H2461       H  0.47697070  0.06901686  0.94750986     0.00600
H2462       H  0.42410947  0.17475994  0.91057487     0.04300
H2463       H  0.39883626  0.16209581  0.93237737     0.06200
H2464       H  0.40685990  0.15242447  0.88820568     0.07100
C2465       C  0.63677227  0.95839263  0.73638270    -0.22600
C2466       C  0.62400948  0.94584458  0.76244420     0.09400
C2467       C  0.60203887  0.95459509  0.77383871     0.09800
C2468       C  0.59311154  0.97537238  0.75842547    -0.17500
C2469       C  0.60587177  0.98837638  0.73257872    -0.27900
C2470       C  0.62818428  0.97965364  0.72161222     0.18100
C2471       C  0.63440723  0.92446715  0.77959229     0.12100
C2472       C  0.58840812  0.94251702  0.80347574    -0.12200
H2473       H  0.57623232  0.98187662  0.76754006     0.12400
C2474       C  0.64364454  0.99304829  0.69580341    -0.23100
H2475       H  0.65383359  0.95179743  0.72826992     0.08000
C2476       C  0.62777043  0.90154293  0.76902798     0.04400
C2477       C  0.63467389  0.88216391  0.79026518    -0.20300
C2478       C  0.64849273  0.88502373  0.82156941    -0.12600
C2479       C  0.65661379  0.90792435  0.83041198     0.13100
C2480       C  0.64939546  0.92730772  0.80936137    -0.23000
C2481       C  0.61310799  0.89759748  0.73566570    -0.06100
H2482       H  0.62861679  0.86469896  0.78300391     0.14600
C2483       C  0.67169645  0.91235259  0.86315724    -0.16300
H2484       H  0.65460223  0.94495574  0.81711845     0.08900
H2485       H  0.66099476  0.98442486  0.69225148     0.06800
H2486       H  0.64679995  0.01112487  0.70618571     0.08000
H2487       H  0.63513795  0.99378257  0.66889764     0.07000
H2488       H  0.59912480  0.94194841  0.82855135     0.01900
H2489       H  0.58393286  0.92427608  0.79530207     0.02400
H2490       H  0.57179378  0.95190333  0.80973209     0.05900
H2491       H  0.60955837  0.87859816  0.73110046     0.04900
H2492       H  0.62253817  0.90454393  0.71164491    -0.00900
H2493       H  0.59601133  0.90679363  0.73821844     0.00600
H2494       H  0.68866480  0.90297758  0.86016347     0.04300
H2495       H  0.66254268  0.90613835  0.88787090     0.06200
H2496       H  0.67563256  0.93136814  0.86669000     0.07100
C2497       C  0.50726632  0.02427047  0.52157881    -0.22600
C2498       C  0.50698380  0.99966320  0.52347579     0.09400
C2499       C  0.52158178  0.98816731  0.54898440     0.09800
C2500       C  0.53400836  0.00167987  0.57467396    -0.17500
C2501       C  0.53300221  0.02637841  0.57415944    -0.27900
C2502       C  0.52036745  0.03773946  0.54612090     0.18100
C2503       C  0.49252888  0.98661840  0.49656014     0.12100
C2504       C  0.52493214  0.96185016  0.54806285    -0.12200
H2505       H  0.54422536  0.99296777  0.59547189     0.12400
C2506       C  0.52109435  0.06410373  0.54136667    -0.23100
H2507       H  0.49707674  0.03299300  0.50074052     0.08000
C2508       C  0.47121232  0.97529341  0.50582301     0.04400
C2509       C  0.45883117  0.96259658  0.47914785    -0.20300
C2510       C  0.46693102  0.96164451  0.44331084    -0.12600
C2511       C  0.48703058  0.97493602  0.43355212     0.13100
C2512       C  0.49961360  0.98706666  0.46031026    -0.23000
C2513       C  0.46113640  0.97718796  0.54340637    -0.06100
H2514       H  0.44324483  0.95276831  0.48653867     0.14600
C2515       C  0.49517612  0.97665935  0.39480739    -0.16300
H2516       H  0.51531018  0.99676213  0.45301242     0.08900
H2517       H  0.51243797  0.07293422  0.56447340     0.06800
H2518       H  0.51183617  0.06976102  0.51639038     0.08000
H2519       H  0.53961180  0.07008132  0.53935619     0.07000
H2520       H  0.53229140  0.95665031  0.52142796     0.01900
H2521       H  0.50806790  0.95255358  0.55211135     0.02400
H2522       H  0.53726982  0.95584975  0.56942493     0.05900
H2523       H  0.44407832  0.96783222  0.54566271     0.04900
H2524       H  0.45816212  0.99600140  0.55013222    -0.00900
H2525       H  0.47323047  0.96952687  0.56366112     0.00600
H2526       H  0.50982478  0.98941325  0.39174788     0.04300
H2527       H  0.48046378  0.98268702  0.37740949     0.06200
H2528       H  0.50160454  0.95937418  0.38513305     0.07100
C2529       C  0.62325480  0.24686579  0.87881985    -0.22600
C2530       C  0.63770009  0.22700505  0.87531719     0.09400
C2531       C  0.65735958  0.22446206  0.89820611     0.09800
C2532       C  0.66104896  0.24087889  0.92601999    -0.17500
C2533       C  0.64536582  0.25959782  0.93167204    -0.27900
C2534       C  0.62680178  0.26323584  0.90676318     0.18100
C2535       C  0.63047928  0.20789218  0.85031088     0.12100
C2536       C  0.67378076  0.20382235  0.89439563    -0.12200
H2537       H  0.67545909  0.23827378  0.94474958     0.12400
C2538       C  0.61080896  0.28436009  0.90925609    -0.23100
H2539       H  0.60851426  0.24896848  0.86055342     0.08000
C2540       C  0.61154152  0.19290907  0.85912319     0.04400
C2541       C  0.60526354  0.17482846  0.83525791    -0.20300
C2542       C  0.61780330  0.17086181  0.80316625    -0.12600
C2543       C  0.63708899  0.18560867  0.79459801     0.13100
C2544       C  0.64302607  0.20413281  0.81818054    -0.23000
C2545       C  0.59824777  0.19560460  0.89414478    -0.06100
H2546       H  0.59059100  0.16346755  0.84193572     0.14600
C2547       C  0.65103151  0.18236758  0.76032014    -0.16300
H2548       H  0.65756899  0.21568627  0.81167714     0.08900
H2549       H  0.59851960  0.28525240  0.88596686     0.06800
H2550       H  0.62143818  0.30074966  0.90930327     0.08000
H2551       H  0.60001919  0.28355797  0.93418176     0.07000
H2552       H  0.68215183  0.20415093  0.86729477     0.01900
H2553       H  0.66389024  0.18711354  0.89766963     0.02400
H2554       H  0.68794739  0.20422778  0.91502401     0.05900
H2555       H  0.58447588  0.18190191  0.89722700     0.04900
H2556       H  0.58951597  0.21305125  0.89510580    -0.00900
H2557       H  0.61055308  0.19400130  0.91730973     0.00600
H2558       H  0.66473959  0.19613403  0.75725664     0.04300
H2559       H  0.63919402  0.18338199  0.73650948     0.06200
H2560       H  0.66000608  0.16502918  0.76068699     0.07100
C2561       C  0.69052222  0.08977198  0.56300255    -0.22600
C2562       C  0.68923027  0.10526524  0.53354432     0.09400
C2563       C  0.66719062  0.11411251  0.52277065     0.09800
C2564       C  0.64704361  0.10806487  0.54266514    -0.17500
C2565       C  0.64831794  0.09338326  0.57332305    -0.27900
C2566       C  0.67041595  0.08380655  0.58319046     0.18100
C2567       C  0.71138257  0.11422120  0.51721061     0.12100
C2568       C  0.66510200  0.13059875  0.49101039    -0.12200
H2569       H  0.63026382  0.11554985  0.53496976     0.12400
C2570       C  0.67332226  0.06861122  0.61628059    -0.23100
H2571       H  0.70757415  0.08322778  0.57126755     0.08000
C2572       C  0.72303029  0.13375210  0.53227870     0.04400
C2573       C  0.74369663  0.14210257  0.51613240    -0.20300
C2574       C  0.75376382  0.13111972  0.48553010    -0.12600
C2575       C  0.74197332  0.11121897  0.47070888     0.13100
C2576       C  0.72085713  0.10324615  0.48657227    -0.23000
C2577       C  0.71374272  0.14567910  0.56580378    -0.06100
H2578       H  0.75221471  0.15725184  0.52815167     0.14600
C2579       C  0.75156106  0.09778173  0.43893443    -0.16300
H2580       H  0.71178212  0.08816307  0.47530300     0.08900
H2581       H  0.66714946  0.07826977  0.64057388     0.06800
H2582       H  0.69195324  0.06366161  0.62081893     0.08000
H2583       H  0.66315139  0.05210779  0.61303075     0.07000
H2584       H  0.67156123  0.12171251  0.46618450     0.01900
H2585       H  0.67572406  0.14667306  0.49590773     0.02400
H2586       H  0.64663956  0.13609318  0.48631617     0.05900
H2587       H  0.72494204  0.16072793  0.57417082     0.04900
H2588       H  0.71320782  0.13290831  0.58853170    -0.00900
H2589       H  0.69576207  0.15244751  0.56073500     0.00600
H2590       H  0.76938932  0.09108371  0.44535233     0.04300
H2591       H  0.75208238  0.10941740  0.41488430     0.06200
H2592       H  0.74043645  0.08237223  0.43197249     0.07100
loop_ 
_geom_bond_atom_site_label_1 
_geom_bond_atom_site_label_2 
_geom_bond_distance 
_geom_bond_site_symmetry_2 
_ccdc_geom_bond_type 
Zr1           O2   2.439       .  S
Zr1           O3   2.478       .  S
Zr1           O4   2.475       .  S
Zr1           O7   2.477       .  S
Zr1           O9   2.394       .  S
Zr1          O10   2.392       .  S
Zr1          O11   2.426       .  S
Zr1          O12   2.401       .  S
O2           H58   0.990       .  S
O2           H66   0.989       .  S
O3           C23   1.290       .  A
O4           C25   1.291       .  A
O5          Zr15   2.419       .  S
O5           C24   1.283       .  A
O6          Zr14   2.432       .  S
O6           C25   1.285       .  A
O7           C24   1.292       .  A
O8          Zr16   2.397       .  S
O8           C23   1.276       .  A
O9          Zr14   2.409       .  S
O9          Zr16   2.385       .  S
O10         Zr15   2.394       .  S
O10         Zr16   2.386       .  S
O10          H45   0.966       .  S
O11         Zr14   2.402       .  S
O11         Zr31   2.405       .  S
O11          H48   0.965       .  S
O12         Zr15   2.390       .  S
O12         Zr31   2.389       .  S
Zr13         O38   2.442       .  S
Zr13         O32   2.428       .  S
Zr13         O40   2.421       .  S
Zr13         O28   2.438       .  S
Zr13         O19   2.396       .  S
Zr13         O20   2.403       .  S
Zr13         O21   2.377       .  S
Zr13         O22   2.378       .  S
Zr14         O33   2.437       .  S
Zr14         O26   2.435       .  S
Zr14         O27   2.450       .  S
Zr14         O20   2.401       .  S
Zr14         O21   2.395       .  S
Zr15         O17   2.439       .  S
Zr15         O39   2.438       .  S
Zr15         O41   2.437       .  S
Zr15         O19   2.388       .  S
Zr15         O22   2.394       .  S
Zr16         O42   2.434       .  S
Zr16         O43   2.435       .  S
Zr16         O18   2.437       .  S
Zr16         O19   2.384       .  S
Zr16         O20   2.379       .  S
O17          H54   0.990       .  S
O18          H49   0.990       .  S
O18          H63   0.990       .  S
O20          H46   0.965       .  S
O21         Zr31   2.379       .  S
O22         Zr31   2.378       .  S
O22          H47   0.966       .  S
C23        C2501   1.484       .  S
C24        C2565   1.492       .  S
C25        C2469   1.503   1_545  S
O26          H62   0.991       .  S
O27          C29   1.287       .  A
O28          C29   1.283       .  A
C29        C2437   1.486       .  S
O30         Zr31   2.438       .  S
O30          H59   0.990       .  S
Zr31         O34   2.436       .  S
Zr31         O35   2.439       .  S
Zr31         O36   2.432       .  S
O32          C37   1.283       .  A
O33          H50   0.990       .  S
O33          H65   0.990       .  S
O34          H51   0.990       .  S
O35          H55   0.990       .  S
O35          H64   0.990       .  S
O36          C37   1.283       .  A
C37        C2542   1.481       .  S
O38          H57   0.990       .  S
O38          H61   0.990       .  S
O39          H53   0.988       .  S
O39          H60   0.990       .  S
O40          C44   1.283       .  A
O41          C44   1.284       .  A
O42          H52   0.989       .  S
O43          H56   0.990       .  S
C44        C2405   1.475       .  S
Zr67         O68   2.439       .  S
Zr67         O69   2.481       .  S
Zr67         O70   2.480       .  S
Zr67         O73   2.467       .  S
Zr67         O75   2.388       .  S
Zr67         O76   2.389       .  S
Zr67         O77   2.425       .  S
Zr67         O78   2.419       .  S
O68         H124   0.990       .  S
O68         H132   0.990       .  S
O69          C89   1.291       .  A
O70          C91   1.292       .  A
O71         Zr81   2.419       .  S
O71          C90   1.281       .  A
O72         Zr80   2.421       .  S
O72          C91   1.284       .  A
O73          C90   1.291       .  A
O74         Zr82   2.385       .  S
O74          C89   1.275       .  A
O75         Zr80   2.403       .  S
O75         Zr82   2.384       .  S
O76         Zr81   2.396       .  S
O76         Zr82   2.381       .  S
O76         H111   0.966       .  S
O77         Zr80   2.410       .  S
O77         Zr97   2.391       .  S
O77         H114   0.963       .  S
O78         Zr81   2.396       .  S
O78         Zr97   2.407       .  S
Zr79        O104   2.441       .  S
Zr79         O98   2.424       .  S
Zr79        O106   2.413       .  S
Zr79         O94   2.422       .  S
Zr79         O85   2.397       .  S
Zr79         O86   2.397       .  S
Zr79         O87   2.372       .  S
Zr79         O88   2.379       .  S
Zr80         O99   2.436       .  S
Zr80         O92   2.434       .  S
Zr80         O93   2.451       .  S
Zr80         O86   2.393       .  S
Zr80         O87   2.394       .  S
Zr81         O83   2.435       .  S
Zr81        O105   2.438       .  S
Zr81        O107   2.434       .  S
Zr81         O85   2.383       .  S
Zr81         O88   2.392       .  S
Zr82        O108   2.434       .  S
Zr82        O109   2.440       .  S
Zr82         O84   2.439       .  S
Zr82         O85   2.385       .  S
Zr82         O86   2.373       .  S
O83         H120   0.990       .  S
O84         H115   0.990       .  S
O84         H129   0.990       .  S
O86         H112   0.963       .  S
O87         Zr97   2.378       .  S
O88         Zr97   2.368       .  S
O88         H113   0.966       .  S
C89        C2510   1.484       .  S
C90        C2286   1.502       .  S
C91        C2382   1.496       .  S
O92         H128   0.990       .  S
O93          C95   1.288       .  A
O94          C95   1.281       .  A
C95        C2245   1.477       .  S
O96         Zr97   2.438       .  S
O96         H125   0.990       .  S
Zr97        O100   2.436       .  S
Zr97        O101   2.438       .  S
Zr97        O102   2.443       .  S
O98         C103   1.281       .  A
O99         H116   0.990       .  S
O99         H131   0.990       .  S
O100        H117   0.990       .  S
O101        H121   0.990       .  S
O101        H130   0.990       .  S
O102        C103   1.285       .  A
C103       C2341   1.478       .  S
O104        H123   0.991       .  S
O104        H127   0.990       .  S
O105        H119   0.990       .  S
O105        H126   0.990       .  S
O106        C110   1.283       .  A
O107        C110   1.284       .  A
O108        H118   0.989       .  S
O109        H122   0.990       .  S
C110       C2309   1.490       .  S
Zr133       O134   2.440       .  S
Zr133       O135   2.480       .  S
Zr133       O136   2.486       .  S
Zr133       O139   2.478       .  S
Zr133       O141   2.389       .  S
Zr133       O142   2.395       .  S
Zr133       O143   2.425       .  S
Zr133       O144   2.409       .  S
O134        H190   0.990       .  S
O134        H198   0.990       .  S
O135        C155   1.291       .  A
O136        C157   1.293       .  A
O137       Zr147   2.423       .  S
O137        C156   1.284       .  A
O138       Zr146   2.401   1_556  S
O138        C157   1.277       .  A
O139        C156   1.293       .  A
O140       Zr148   2.386       .  S
O140        C155   1.274       .  A
O141       Zr146   2.401   1_556  S
O141       Zr148   2.381       .  S
O142       Zr147   2.394       .  S
O142       Zr148   2.387       .  S
O142        H177   0.966       .  S
O143       Zr146   2.407   1_556  S
O143       Zr163   2.406       .  S
O143        H180   0.965       .  S
O144       Zr147   2.391       .  S
O144       Zr163   2.391       .  S
Zr145       O170   2.442   1_556  S
Zr145       O164   2.416   1_556  S
Zr145       O172   2.408       .  S
Zr145       O160   2.429   1_556  S
Zr145       O151   2.396       .  S
Zr145       O152   2.395       .  S
Zr145       O153   2.373   1_556  S
Zr145       O154   2.380       .  S
Zr146       O165   2.436       .  S
Zr146       O158   2.434       .  S
Zr146       O159   2.434       .  S
Zr146       O152   2.393   1_554  S
Zr146       O153   2.390       .  S
Zr147       O149   2.436       .  S
Zr147       O171   2.436       .  S
Zr147       O173   2.433       .  S
Zr147       O151   2.379       .  S
Zr147       O154   2.395       .  S
Zr148       O174   2.437       .  S
Zr148       O175   2.436       .  S
Zr148       O150   2.437       .  S
Zr148       O151   2.376       .  S
Zr148       O152   2.382       .  S
O149        H186   0.989       .  S
O150        H181   0.990       .  S
O150        H195   0.989       .  S
O152        H178   0.965       .  S
O153       Zr163   2.376   1_554  S
O154       Zr163   2.381       .  S
O154        H179   0.966       .  S
C155       C2213   1.487       .  S
C156       C2478   1.495       .  S
C157       C2181   1.496       .  S
O158        H194   0.990   1_554  S
O159        C161   1.284       .  A
O160        C161   1.283       .  A
C161       C2149   1.488       .  S
O162       Zr163   2.436       .  S
O162        H191   0.990       .  S
Zr163       O166   2.435   1_556  S
Zr163       O167   2.440       .  S
Zr163       O168   2.427   1_556  S
O164        C169   1.280       .  A
O165        H182   0.990       .  S
O165        H197   0.990       .  S
O166        H183   0.990       .  S
O167        H187   0.990       .  S
O167        H196   0.990       .  S
O168        C169   1.281       .  A
C169       C2318   1.475       .  S
O170        H189   0.990       .  S
O170        H193   0.990       .  S
O171        H185   0.990       .  S
O171        H192   0.990       .  S
O172        C176   1.279       .  A
O173        C176   1.283       .  A
O174        H184   0.990       .  S
O175        H188   0.990       .  S
C176       C2117   1.461       .  S
Zr199       O200   2.439       .  S
Zr199       O201   2.496       .  S
Zr199       O202   2.473       .  S
Zr199       O205   2.469       .  S
Zr199       O207   2.384       .  S
Zr199       O208   2.390       .  S
Zr199       O209   2.432       .  S
Zr199       O210   2.421       .  S
O200        H256   0.990       .  S
O200        H264   0.989       .  S
O201        C221   1.294       .  A
O202        C223   1.290       .  A
O203       Zr213   2.427       .  S
O203        C222   1.285       .  A
O204       Zr212   2.429       .  S
O204        C223   1.284       .  A
O205        C222   1.290       .  A
O206       Zr214   2.375       .  S
O206        C221   1.273       .  A
O207       Zr212   2.406       .  S
O207       Zr214   2.389       .  S
O208       Zr213   2.401       .  S
O208       Zr214   2.378       .  S
O208        H243   0.966       .  S
O209       Zr212   2.403       .  S
O209       Zr229   2.408       .  S
O209        H246   0.964       .  S
O210       Zr213   2.390       .  S
O210       Zr229   2.404       .  S
Zr211       O236   2.443       .  S
Zr211       O230   2.423       .  S
Zr211       O238   2.415       .  S
Zr211       O226   2.432       .  S
Zr211       O217   2.396       .  S
Zr211       O218   2.395       .  S
Zr211       O219   2.377       .  S
Zr211       O220   2.381       .  S
Zr212       O231   2.436       .  S
Zr212       O224   2.435       .  S
Zr212       O225   2.442       .  S
Zr212       O218   2.400       .  S
Zr212       O219   2.395       .  S
Zr213       O215   2.435       .  S
Zr213       O237   2.436       .  S
Zr213       O239   2.443       .  S
Zr213       O217   2.385       .  S
Zr213       O220   2.396       .  S
Zr214       O240   2.436       .  S
Zr214       O241   2.435       .  S
Zr214       O216   2.438       .  S
Zr214       O217   2.377       .  S
Zr214       O218   2.373       .  S
O215        H252   0.990       .  S
O216        H247   0.990       .  S
O216        H261   0.990       .  S
O218        H244   0.964       .  S
O219       Zr229   2.381       .  S
O220       Zr229   2.372       .  S
O220        H245   0.966       .  S
C221       C2222   1.494       .  S
C222       C1998   1.497       .  S
C223       C2094   1.495       .  S
O224        H260   0.990       .  S
O225        C227   1.286       .  A
O226        C227   1.282       .  A
C227       C1957   1.474       .  S
O228       Zr229   2.435       .  S
O228        H257   0.991       .  S
Zr229       O232   2.435       .  S
Zr229       O233   2.439       .  S
Zr229       O234   2.460       .  S
O230        C235   1.281       .  A
O231        H248   0.990       .  S
O231        H263   0.990       .  S
O232        H249   0.990       .  S
O233        H253   0.990       .  S
O233        H262   0.990       .  S
O234        C235   1.288       .  A
C235       C2053   1.500       .  S
O236        H255   0.991       .  S
O236        H259   0.990       .  S
O237        H251   0.990       .  S
O237        H258   0.990       .  S
O238        C242   1.283       .  A
O239        C242   1.286       .  A
O240        H250   0.990       .  S
O241        H254   0.990       .  S
C242       C2021   1.488       .  S
Zr265       O266   2.438       .  S
Zr265       O267   2.457       .  S
Zr265       O268   2.462       .  S
Zr265       O271   2.455       .  S
Zr265       O273   2.385       .  S
Zr265       O274   2.388       .  S
Zr265       O275   2.415       .  S
Zr265       O276   2.415       .  S
O266        H322   0.990       .  S
O266        H330   0.990       .  S
O267        C287   1.287       .  A
O268        C289   1.288       .  A
O269       Zr279   2.419       .  S
O269        C288   1.284       .  A
O270       Zr278   2.412       .  S
O270        C289   1.280       .  A
O271        C288   1.288       .  A
O272       Zr280   2.401       .  S
O272        C287   1.278       .  A
O273       Zr278   2.401       .  S
O273       Zr280   2.384       .  S
O274       Zr279   2.388       .  S
O274       Zr280   2.376       .  S
O274        H309   0.966       .  S
O275       Zr278   2.405       .  S
O275       Zr295   2.391       .  S
O275        H312   0.964       .  S
O276       Zr279   2.397       .  S
O276       Zr295   2.404       .  S
Zr277       O302   2.442       .  S
Zr277       O296   2.425       .  S
Zr277       O304   2.411       .  S
Zr277       O292   2.413       .  S
Zr277       O283   2.405       .  S
Zr277       O284   2.398       .  S
Zr277       O285   2.371       .  S
Zr277       O286   2.377       .  S
Zr278       O297   2.438       .  S
Zr278       O290   2.436       .  S
Zr278       O291   2.434       .  S
Zr278       O284   2.390       .  S
Zr278       O285   2.392       .  S
Zr279       O281   2.434       .  S
Zr279       O303   2.436       .  S
Zr279       O305   2.427       .  S
Zr279       O283   2.391       .  S
Zr279       O286   2.396       .  S
Zr280       O306   2.436       .  S
Zr280       O307   2.439   1_455  S
Zr280       O282   2.438       .  S
Zr280       O283   2.396       .  S
Zr280       O284   2.374       .  S
O281        H318   0.990       .  S
O282        H313   0.990       .  S
O282        H327   0.990       .  S
O284        H310   0.964       .  S
O285       Zr295   2.379       .  S
O286       Zr295   2.371       .  S
O286        H311   0.966       .  S
C287       C1861   1.482       .  S
C288       C1838   1.496   1_545  S
C289       C1925   1.483       .  S
O290        H326   0.990       .  S
O291        C293   1.284       .  A
O292        C293   1.280       .  A
C293       C1765   1.460       .  S
O294       Zr295   2.436       .  S
O294        H323   0.990       .  S
Zr295       O298   2.436       .  S
Zr295       O299   2.438       .  S
Zr295       O300   2.430       .  S
O296        C301   1.281       .  A
O297        H314   0.990       .  S
O297        H329   0.990       .  S
O298        H315   0.990       .  S
O299        H319   0.990       .  S
O299        H328   0.990       .  S
O300        C301   1.282       .  A
C301       C1902   1.479       .  S
O302        H321   0.991       .  S
O302        H325   0.990       .  S
O303        H317   0.990       .  S
O303        H324   0.990       .  S
O304        C308   1.279       .  A
O305        C308   1.282       .  A
O306        H316   0.991   1_455  S
O307        H320   0.990       .  S
C308       C1806   1.468       .  S
Zr331       O332   2.438       .  S
Zr331       O333   2.484       .  S
Zr331       O334   2.478       .  S
Zr331       O337   2.472       .  S
Zr331       O339   2.389       .  S
Zr331       O340   2.389       .  S
Zr331       O341   2.429       .  S
Zr331       O342   2.409       .  S
O332        H388   0.990       .  S
O332        H396   0.990       .  S
O333        C353   1.292       .  A
O334        C355   1.291       .  A
O335       Zr345   2.420       .  S
O335        C354   1.282       .  A
O336       Zr344   2.427       .  S
O336        C355   1.285       .  A
O337        C354   1.292       .  A
O338       Zr346   2.375       .  S
O338        C353   1.273       .  A
O339       Zr344   2.401       .  S
O339       Zr346   2.388       .  S
O340       Zr345   2.393       .  S
O340       Zr346   2.385       .  S
O340        H375   0.966       .  S
O341       Zr344   2.402       .  S
O341       Zr361   2.411       .  S
O341        H378   0.965       .  S
O342       Zr345   2.384       .  S
O342       Zr361   2.394       .  S
Zr343       O368   2.442       .  S
Zr343       O362   2.422       .  S
Zr343       O370   2.439       .  S
Zr343       O358   2.430       .  S
Zr343       O349   2.390       .  S
Zr343       O350   2.398       .  S
Zr343       O351   2.383       .  S
Zr343       O352   2.382       .  S
Zr344       O363   2.437       .  S
Zr344       O356   2.434       .  S
Zr344       O357   2.439       .  S
Zr344       O350   2.395       .  S
Zr344       O351   2.396       .  S
Zr345       O347   2.440       .  S
Zr345       O369   2.436       .  S
Zr345       O371   2.418       .  S
Zr345       O349   2.392       .  S
Zr345       O352   2.395       .  S
Zr346       O372   2.435       .  S
Zr346       O373   2.436   1_655  S
Zr346       O348   2.439   1_655  S
Zr346       O349   2.373       .  S
Zr346       O350   2.378       .  S
O347        H384   0.990       .  S
O348        H379   0.990       .  S
O348        H393   0.990       .  S
O350        H376   0.965       .  S
O351       Zr361   2.374       .  S
O352       Zr361   2.377       .  S
O352        H377   0.965       .  S
C353       C1870   1.491       .  S
C354       C2190   1.490       .  S
C355       C1701   1.507       .  S
O356        H392   0.990       .  S
O357        C359   1.285       .  A
O358        C359   1.284       .  A
C359       C1733   1.472       .  S
O360       Zr361   2.435       .  S
O360        H389   0.990       .  S
Zr361       O364   2.435       .  S
Zr361       O365   2.439       .  S
Zr361       O366   2.440       .  S
O362        C367   1.282       .  A
O363        H380   0.990       .  S
O363        H395   0.990       .  S
O364        H381   0.990       .  S
O365        H385   0.990       .  S
O365        H394   0.990       .  S
O366        C367   1.284       .  A
C367       C2030   1.491       .  S
O368        H387   0.990       .  S
O368        H391   0.991       .  S
O369        H383   0.990       .  S
O369        H390   0.990       .  S
O370        C374   1.285       .  A
O371        C374   1.282       .  A
O372        H382   0.990   1_655  S
O373        H386   0.990       .  S
C374       C1669   1.474       .  S
Zr397       O398   2.441       .  S
Zr397       O399   2.465       .  S
Zr397       O400   2.457       .  S
Zr397       O403   2.462       .  S
Zr397       O405   2.388       .  S
Zr397       O406   2.387       .  S
Zr397       O407   2.418       .  S
Zr397       O408   2.413       .  S
O398        H454   0.990       .  S
O398        H462   0.990       .  S
O399        C419   1.288       .  A
O400        C421   1.289       .  A
O401       Zr411   2.416       .  S
O401        C420   1.281       .  A
O402       Zr410   2.429       .  S
O402        C421   1.284       .  A
O403        C420   1.290       .  A
O404       Zr412   2.402       .  S
O404        C419   1.278       .  A
O405       Zr410   2.401       .  S
O405       Zr412   2.381       .  S
O406       Zr411   2.400       .  S
O406       Zr412   2.376       .  S
O406        H441   0.966       .  S
O407       Zr410   2.409       .  S
O407       Zr427   2.383       .  S
O407        H444   0.964       .  S
O408       Zr411   2.397       .  S
O408       Zr427   2.404       .  S
Zr409       O434   2.442       .  S
Zr409       O428   2.432       .  S
Zr409       O436   2.415       .  S
Zr409       O424   2.424       .  S
Zr409       O415   2.402       .  S
Zr409       O416   2.402       .  S
Zr409       O417   2.375       .  S
Zr409       O418   2.379       .  S
Zr410       O429   2.437       .  S
Zr410       O422   2.434       .  S
Zr410       O423   2.448       .  S
Zr410       O416   2.398       .  S
Zr410       O417   2.398       .  S
Zr411       O413   2.434       .  S
Zr411       O435   2.438       .  S
Zr411       O437   2.441       .  S
Zr411       O415   2.383       .  S
Zr411       O418   2.396       .  S
Zr412       O438   2.436       .  S
Zr412       O439   2.437       .  S
Zr412       O414   2.437       .  S
Zr412       O415   2.393       .  S
Zr412       O416   2.376       .  S
O413        H450   0.990       .  S
O414        H445   0.990       .  S
O414        H459   0.990       .  S
O416        H442   0.963       .  S
O417       Zr427   2.378       .  S
O418       Zr427   2.377       .  S
O418        H443   0.966       .  S
C419       C1637   1.478       .  S
C420       C2373   1.497       .  S
C421       C1829   1.485       .  S
O422        H458   0.990       .  S
O423        C425   1.287       .  A
O424        C425   1.281       .  A
C425       C1966   1.473       .  S
O426       Zr427   2.435       .  S
O426        H455   0.990       .  S
Zr427       O430   2.437       .  S
Zr427       O431   2.437       .  S
Zr427       O432   2.425       .  S
O428        C433   1.282       .  A
O429        H446   0.990       .  S
O429        H461   0.990       .  S
O430        H447   0.990       .  S
O431        H451   0.990       .  S
O431        H460   0.990       .  S
O432        C433   1.282       .  A
C433       C1742   1.488       .  S
O434        H453   0.990       .  S
O434        H457   0.991       .  S
O435        H449   0.989       .  S
O435        H456   0.990       .  S
O436        C440   1.282       .  A
O437        C440   1.285       .  A
O438        H448   0.990       .  S
O439        H452   0.990       .  S
C440       C1605   1.482       .  S
Zr463       O464   2.438       .  S
Zr463       O465   2.478       .  S
Zr463       O466   2.475       .  S
Zr463       O469   2.481       .  S
Zr463       O471   2.390       .  S
Zr463       O472   2.390       .  S
Zr463       O473   2.425       .  S
Zr463       O474   2.401       .  S
O464        H520   0.990       .  S
O464        H528   0.990       .  S
O465        C485   1.291       .  A
O466        C487   1.291       .  A
O467       Zr477   2.413       .  S
O467        C486   1.281       .  A
O468       Zr476   2.414       .  S
O468        C487   1.282   1_554  A
O469        C486   1.293       .  A
O470       Zr478   2.393       .  S
O470        C485   1.277       .  A
O471       Zr476   2.401   1_556  S
O471       Zr478   2.380       .  S
O472       Zr477   2.389       .  S
O472       Zr478   2.383       .  S
O472        H507   0.966       .  S
O473       Zr476   2.413   1_556  S
O473       Zr493   2.397       .  S
O473        H510   0.964       .  S
O474       Zr477   2.389       .  S
O474       Zr493   2.388       .  S
Zr475       O500   2.444   1_556  S
Zr475       O494   2.425   1_556  S
Zr475       O502   2.421       .  S
Zr475       O490   2.433   1_556  S
Zr475       O481   2.400       .  S
Zr475       O482   2.400       .  S
Zr475       O483   2.374   1_556  S
Zr475       O484   2.381       .  S
Zr476       O495   2.436       .  S
Zr476       O488   2.435       .  S
Zr476       O489   2.453       .  S
Zr476       O482   2.389   1_554  S
Zr476       O483   2.393       .  S
Zr477       O479   2.436       .  S
Zr477       O501   2.436       .  S
Zr477       O503   2.422       .  S
Zr477       O481   2.389       .  S
Zr477       O484   2.400       .  S
Zr478       O504   2.436       .  S
Zr478       O505   2.435       .  S
Zr478       O480   2.437       .  S
Zr478       O481   2.386       .  S
Zr478       O482   2.384       .  S
O479        H516   0.990       .  S
O480        H511   0.990       .  S
O480        H525   0.990       .  S
O482        H508   0.965   1_556  S
O483       Zr493   2.379   1_554  S
O484       Zr493   2.380       .  S
O484        H509   0.966       .  S
C485       C1646   1.498       .  S
C486       C1573   1.488       .  S
C487       C1509   1.494       .  S
O488        H524   0.990       .  S
O489        C491   1.288       .  A
O490        C491   1.285       .  A
C491       C2350   1.500       .  S
O492       Zr493   2.436       .  S
O492        H521   0.990       .  S
Zr493       O496   2.436   1_556  S
Zr493       O497   2.439       .  S
Zr493       O498   2.422   1_556  S
O494        C499   1.282       .  A
O495        H512   0.990       .  S
O495        H527   0.990       .  S
O496        H513   0.990       .  S
O497        H517   0.990       .  S
O497        H526   0.990       .  S
O498        C499   1.280       .  A
C499       C1541   1.479       .  S
O500        H519   0.991       .  S
O500        H523   0.990       .  S
O501        H515   0.989       .  S
O501        H522   0.990       .  S
O502        C506   1.281       .  A
O503        C506   1.281       .  A
O504        H514   0.990       .  S
O505        H518   0.990       .  S
C506       C2126   1.472       .  S
Zr529       O530   2.442       .  S
Zr529       O531   2.477       .  S
Zr529       O532   2.479       .  S
Zr529       O535   2.478       .  S
Zr529       O537   2.394       .  S
Zr529       O538   2.397       .  S
Zr529       O539   2.423       .  S
Zr529       O540   2.400       .  S
O530        H586   0.990       .  S
O530        H594   0.990       .  S
O531        C551   1.290       .  A
O532        C553   1.292       .  A
O533       Zr543   2.423       .  S
O533        C552   1.284       .  A
O534       Zr542   2.437       .  S
O534        C553   1.285       .  A
O535        C552   1.293       .  A
O536       Zr544   2.385       .  S
O536        C551   1.275       .  A
O537       Zr542   2.403       .  S
O537       Zr544   2.388       .  S
O538       Zr543   2.400       .  S
O538       Zr544   2.381       .  S
O538        H573   0.966       .  S
O539       Zr542   2.406       .  S
O539       Zr559   2.394       .  S
O539        H576   0.964       .  S
O540       Zr543   2.391       .  S
O540       Zr559   2.380       .  S
Zr541       O566   2.443       .  S
Zr541       O560   2.430       .  S
Zr541       O568   2.424       .  S
Zr541       O556   2.422       .  S
Zr541       O547   2.395       .  S
Zr541       O548   2.406       .  S
Zr541       O549   2.380       .  S
Zr541       O550   2.376       .  S
Zr542       O561   2.437       .  S
Zr542       O554   2.436       .  S
Zr542       O555   2.451       .  S
Zr542       O548   2.400       .  S
Zr542       O549   2.399       .  S
Zr543       O545   2.435       .  S
Zr543       O567   2.436       .  S
Zr543       O569   2.451       .  S
Zr543       O547   2.382       .  S
Zr543       O550   2.399       .  S
Zr544       O570   2.436       .  S
Zr544       O571   2.435       .  S
Zr544       O546   2.439       .  S
Zr544       O547   2.382       .  S
Zr544       O548   2.383       .  S
O545        H582   0.990       .  S
O546        H577   0.990       .  S
O546        H591   0.989       .  S
O548        H574   0.965       .  S
O549       Zr559   2.378       .  S
O550       Zr559   2.382       .  S
O550        H575   0.966       .  S
C551       C1413   1.493       .  S
C552       C1477   1.482       .  S
C553       C1381   1.507       .  S
O554        H590   0.990       .  S
O555        C557   1.287       .  A
O556        C557   1.280       .  A
C557       C1893   1.474       .  S
O558       Zr559   2.435       .  S
O558        H587   0.990       .  S
Zr559       O562   2.435       .  S
Zr559       O563   2.437       .  S
Zr559       O564   2.417       .  S
O560        C565   1.283       .  A
O561        H578   0.990       .  S
O561        H593   0.990       .  S
O562        H579   0.990       .  S
O563        H583   0.990       .  S
O563        H592   0.989       .  S
O564        C565   1.279       .  A
C565       C1445   1.482       .  S
O566        H585   0.990       .  S
O566        H589   0.991       .  S
O567        H581   0.990       .  S
O567        H588   0.990       .  S
O568        C572   1.282       .  A
O569        C572   1.287       .  A
O570        H580   0.990       .  S
O571        H584   0.990       .  S
C572       C1358   1.483       .  S
Zr595       O596   2.434       .  S
Zr595       O597   2.463       .  S
Zr595       O598   2.472       .  S
Zr595       O601   2.460       .  S
Zr595       O603   2.382       .  S
Zr595       O604   2.393       .  S
Zr595       O605   2.418       .  S
Zr595       O606   2.416       .  S
O596        H652   0.990       .  S
O596        H660   0.989       .  S
O597        C617   1.287       .  A
O598        C619   1.291       .  A
O599       Zr609   2.420       .  S
O599        C618   1.283       .  A
O600       Zr608   2.448       .  S
O600        C619   1.288       .  A
O601        C618   1.288       .  A
O602       Zr610   2.395       .  S
O602        C617   1.276       .  A
O603       Zr608   2.397       .  S
O603       Zr610   2.384       .  S
O604       Zr609   2.404       .  S
O604       Zr610   2.374       .  S
O604        H639   0.966       .  S
O605       Zr608   2.405       .  S
O605       Zr625   2.380       .  S
O605        H642   0.965       .  S
O606       Zr609   2.400       .  S
O606       Zr625   2.397       .  S
Zr607       O632   2.442       .  S
Zr607       O626   2.447   1_554  S
Zr607       O634   2.428   1_554  S
Zr607       O622   2.438       .  S
Zr607       O613   2.401       .  S
Zr607       O614   2.406       .  S
Zr607       O615   2.377       .  S
Zr607       O616   2.382       .  S
Zr608       O627   2.436       .  S
Zr608       O620   2.435       .  S
Zr608       O621   2.446       .  S
Zr608       O614   2.406       .  S
Zr608       O615   2.402       .  S
Zr609       O611   2.435   1_554  S
Zr609       O633   2.439       .  S
Zr609       O635   2.452   1_554  S
Zr609       O613   2.382       .  S
Zr609       O616   2.399       .  S
Zr610       O636   2.437       .  S
Zr610       O637   2.436       .  S
Zr610       O612   2.437       .  S
Zr610       O613   2.385       .  S
Zr610       O614   2.385       .  S
O611        H648   0.990       .  S
O612        H643   0.990       .  S
O612        H657   0.990       .  S
O614        H640   0.965       .  S
O615       Zr625   2.384       .  S
O616       Zr625   2.379       .  S
O616        H641   0.966   1_554  S
C617       C1422   1.475       .  S
C618       C1934   1.489       .  S
C619       C2277   1.502       .  S
O620        H656   0.990       .  S
O621        C623   1.286       .  A
O622        C623   1.283       .  A
C623       C1285   1.477       .  S
O624       Zr625   2.438       .  S
O624        H653   0.990       .  S
Zr625       O628   2.436       .  S
Zr625       O629   2.437   1_554  S
Zr625       O630   2.422       .  S
O626        C631   1.286       .  A
O627        H644   0.990       .  S
O627        H659   0.990       .  S
O628        H645   0.990       .  S
O629        H649   0.990       .  S
O629        H658   0.990       .  S
O630        C631   1.281   1_554  A
C631       C2446   1.484       .  S
O632        H651   0.991       .  S
O632        H655   0.990       .  S
O633        H647   0.990   1_554  S
O633        H654   0.990       .  S
O634        C638   1.284       .  A
O635        C638   1.288       .  A
O636        H646   0.990       .  S
O637        H650   0.990       .  S
C638       C1326   1.488       .  S
Zr661       O662   2.441       .  S
Zr661       O663   2.475       .  S
Zr661       O664   2.458       .  S
Zr661       O667   2.465       .  S
Zr661       O669   2.386       .  S
Zr661       O670   2.385       .  S
Zr661       O671   2.424       .  S
Zr661       O672   2.418       .  S
O662        H718   0.990       .  S
O662        H726   0.991       .  S
O663        C683   1.290       .  A
O664        C685   1.287       .  A
O665       Zr675   2.433       .  S
O665        C684   1.285       .  A
O666       Zr674   2.440       .  S
O666        C685   1.285       .  A
O667        C684   1.290       .  A
O668       Zr676   2.382       .  S
O668        C683   1.274       .  A
O669       Zr674   2.406       .  S
O669       Zr676   2.387       .  S
O670       Zr675   2.393       .  S
O670       Zr676   2.379       .  S
O670        H705   0.967       .  S
O671       Zr674   2.407       .  S
O671       Zr691   2.389       .  S
O671        H708   0.964       .  S
O672       Zr675   2.394       .  S
O672       Zr691   2.404       .  S
Zr673       O698   2.442       .  S
Zr673       O692   2.429       .  S
Zr673       O700   2.424       .  S
Zr673       O688   2.446       .  S
Zr673       O679   2.402       .  S
Zr673       O680   2.401       .  S
Zr673       O681   2.376       .  S
Zr673       O682   2.387       .  S
Zr674       O693   2.435       .  S
Zr674       O686   2.435       .  S
Zr674       O687   2.452       .  S
Zr674       O680   2.402       .  S
Zr674       O681   2.400       .  S
Zr675       O677   2.435       .  S
Zr675       O699   2.438       .  S
Zr675       O701   2.430       .  S
Zr675       O679   2.391       .  S
Zr675       O682   2.402       .  S
Zr676       O702   2.435       .  S
Zr676       O703   2.435       .  S
Zr676       O678   2.438       .  S
Zr676       O679   2.383       .  S
Zr676       O680   2.365       .  S
O677        H714   0.990       .  S
O678        H709   0.990       .  S
O678        H723   0.990       .  S
O680        H706   0.962       .  S
O681       Zr691   2.386       .  S
O682       Zr691   2.372       .  S
O682        H707   0.966       .  S
C683       C1262   1.479       .  S
C684       C1230   1.501       .  S
C685       C1989   1.487       .  S
O686        H722   0.990       .  S
O687        C689   1.287       .  A
O688        C689   1.285       .  A
C689       C2254   1.479       .  S
O690       Zr691   2.435       .  S
O690        H719   0.990       .  S
Zr691       O694   2.436       .  S
Zr691       O695   2.437       .  S
Zr691       O696   2.431       .  S
O692        C697   1.281       .  A
O693        H710   0.990       .  S
O693        H725   0.990       .  S
O694        H711   0.990       .  S
O695        H715   0.990       .  S
O695        H724   0.989       .  S
O696        C697   1.282       .  A
C697       C2158   1.477       .  S
O698        H717   0.991       .  S
O698        H721   0.990       .  S
O699        H713   0.990       .  S
O699        H720   0.990       .  S
O700        C704   1.284       .  A
O701        C704   1.283       .  A
O702        H712   0.989       .  S
O703        H716   0.990       .  S
C704       C1550   1.489       .  S
Zr727       O728   2.442       .  S
Zr727       O729   2.479       .  S
Zr727       O730   2.466       .  S
Zr727       O733   2.458       .  S
Zr727       O735   2.387       .  S
Zr727       O736   2.388       .  S
Zr727       O737   2.425       .  S
Zr727       O738   2.409       .  S
O728        H784   0.990       .  S
O728        H792   0.990       .  S
O729        C749   1.291       .  A
O730        C751   1.290       .  A
O731       Zr741   2.444       .  S
O731        C750   1.287       .  A
O732       Zr740   2.423       .  S
O732        C751   1.282       .  A
O733        C750   1.288       .  A
O734       Zr742   2.385       .  S
O734        C749   1.274       .  A
O735       Zr740   2.399       .  S
O735       Zr742   2.382       .  S
O736       Zr741   2.390       .  S
O736       Zr742   2.389       .  S
O736        H771   0.965       .  S
O737       Zr740   2.402       .  S
O737       Zr757   2.400       .  S
O737        H774   0.965       .  S
O738       Zr741   2.384       .  S
O738       Zr757   2.400       .  S
Zr739       O764   2.443       .  S
Zr739       O758   2.436       .  S
Zr739       O766   2.435       .  S
Zr739       O754   2.429       .  S
Zr739       O745   2.394       .  S
Zr739       O746   2.402       .  S
Zr739       O747   2.377       .  S
Zr739       O748   2.384       .  S
Zr740       O759   2.435       .  S
Zr740       O752   2.435       .  S
Zr740       O753   2.440       .  S
Zr740       O746   2.392       .  S
Zr740       O747   2.400       .  S
Zr741       O743   2.436       .  S
Zr741       O765   2.439       .  S
Zr741       O767   2.429       .  S
Zr741       O745   2.391       .  S
Zr741       O748   2.399       .  S
Zr742       O768   2.435       .  S
Zr742       O769   2.437       .  S
Zr742       O744   2.437       .  S
Zr742       O745   2.379       .  S
Zr742       O746   2.381       .  S
O743        H780   0.990       .  S
O744        H775   0.990       .  S
O744        H789   0.990       .  S
O746        H772   0.965       .  S
O747       Zr757   2.374       .  S
O748       Zr757   2.379       .  S
O748        H773   0.966       .  S
C749       C1253   1.488       .  S
C750       C1390   1.489       .  S
C751       C1582   1.496       .  S
O752        H788   0.990       .  S
O753        C755   1.285       .  A
O754        C755   1.284       .  A
C755       C1189   1.482       .  S
O756       Zr757   2.436       .  S
O756        H785   0.990       .  S
Zr757       O760   2.435       .  S
Zr757       O761   2.436       .  S
Zr757       O762   2.442       .  S
O758        C763   1.284       .  A
O759        H776   0.990       .  S
O759        H791   0.990       .  S
O760        H777   0.990       .  S
O761        H781   0.990       .  S
O761        H790   0.990       .  S
O762        C763   1.285       .  A
C763       C1317   1.489       .  S
O764        H783   0.990       .  S
O764        H787   0.991       .  S
O765        H779   0.990       .  S
O765        H786   0.990       .  S
O766        C770   1.283       .  A
O767        C770   1.284       .  A
O768        H778   0.990       .  S
O769        H782   0.990       .  S
C770       C2414   1.475       .  S
Zr793       O794   2.437       .  S
Zr793       O795   2.470       .  S
Zr793       O796   2.486       .  S
Zr793       O799   2.478       .  S
Zr793       O801   2.387       .  S
Zr793       O802   2.398       .  S
Zr793       O803   2.417       .  S
Zr793       O804   2.409       .  S
O794        H850   0.990       .  S
O794        H858   0.990       .  S
O795        C815   1.289       .  A
O796        C817   1.293       .  A
O797       Zr807   2.409       .  S
O797        C816   1.281       .  A
O798       Zr806   2.418       .  S
O798        C817   1.284       .  A
O799        C816   1.293       .  A
O800       Zr808   2.382       .  S
O800        C815   1.276       .  A
O801       Zr806   2.395       .  S
O801       Zr808   2.383       .  S
O802       Zr807   2.399       .  S
O802       Zr808   2.382       .  S
O802        H837   0.966       .  S
O803       Zr806   2.405       .  S
O803       Zr823   2.390       .  S
O803        H840   0.964       .  S
O804       Zr807   2.395       .  S
O804       Zr823   2.391       .  S
Zr805       O830   2.442       .  S
Zr805       O824   2.415       .  S
Zr805       O832   2.435       .  S
Zr805       O820   2.438       .  S
Zr805       O811   2.394       .  S
Zr805       O812   2.401       .  S
Zr805       O813   2.379       .  S
Zr805       O814   2.386       .  S
Zr806       O825   2.436       .  S
Zr806       O818   2.435       .  S
Zr806       O819   2.434       .  S
Zr806       O812   2.399       .  S
Zr806       O813   2.393       .  S
Zr807       O809   2.438       .  S
Zr807       O831   2.435       .  S
Zr807       O833   2.444       .  S
Zr807       O811   2.377       .  S
Zr807       O814   2.395       .  S
Zr808       O834   2.436       .  S
Zr808       O835   2.438       .  S
Zr808       O810   2.437       .  S
Zr808       O811   2.375       .  S
Zr808       O812   2.380       .  S
O809        H846   0.990       .  S
O810        H841   0.990       .  S
O810        H855   0.990       .  S
O812        H838   0.965       .  S
O813       Zr823   2.376       .  S
O814       Zr823   2.383       .  S
O814        H839   0.966       .  S
C815       C1157   1.493       .  S
C816       C1710   1.491       .  S
C817       C2574   1.508       .  S
O818        H854   0.990       .  S
O819        C821   1.284       .  A
O820        C821   1.285       .  A
C821       C1125   1.482       .  S
O822       Zr823   2.436       .  S
O822        H851   0.990       .  S
Zr823       O826   2.437       .  S
Zr823       O827   2.438       .  S
Zr823       O828   2.418       .  S
O824        C829   1.279       .  A
O825        H842   0.990       .  S
O825        H857   0.990       .  S
O826        H843   0.990       .  S
O827        H847   0.990       .  S
O827        H856   0.989       .  S
O828        C829   1.280       .  A
C829       C1797   1.471       .  S
O830        H849   0.990       .  S
O830        H853   0.990       .  S
O831        H845   0.989       .  S
O831        H852   0.990       .  S
O832        C836   1.285       .  A
O833        C836   1.286       .  A
O834        H844   0.990       .  S
O835        H848   0.990       .  S
C836       C1349   1.485       .  S
Zr859       O860   2.439       .  S
Zr859       O861   2.461       .  S
Zr859       O862   2.476       .  S
Zr859       O865   2.488       .  S
Zr859       O867   2.393       .  S
Zr859       O868   2.392       .  S
Zr859       O869   2.422       .  S
Zr859       O870   2.412       .  S
O860        H916   0.990       .  S
O860        H924   0.991       .  S
O861        C881   1.287       .  A
O862        C883   1.292       .  A
O863       Zr873   2.418       .  S
O863        C882   1.283       .  A
O864       Zr872   2.436       .  S
O864        C883   1.284       .  A
O865        C882   1.295       .  A
O866       Zr874   2.399       .  S
O866        C881   1.277       .  A
O867       Zr872   2.401       .  S
O867       Zr874   2.385       .  S
O868       Zr873   2.399       .  S
O868       Zr874   2.381       .  S
O868        H903   0.966       .  S
O869       Zr872   2.406       .  S
O869       Zr889   2.375       .  S
O869        H906   0.963       .  S
O870       Zr873   2.395       .  S
O870       Zr889   2.397       .  S
Zr871       O896   2.441       .  S
Zr871       O890   2.426       .  S
Zr871       O898   2.419   1_554  S
Zr871       O886   2.430       .  S
Zr871       O877   2.399       .  S
Zr871       O878   2.400       .  S
Zr871       O879   2.377       .  S
Zr871       O880   2.380       .  S
Zr872       O891   2.436       .  S
Zr872       O884   2.436       .  S
Zr872       O885   2.452       .  S
Zr872       O878   2.399       .  S
Zr872       O879   2.391       .  S
Zr873       O875   2.435   1_554  S
Zr873       O897   2.438       .  S
Zr873       O899   2.441   1_554  S
Zr873       O877   2.384       .  S
Zr873       O880   2.393       .  S
Zr874       O900   2.436       .  S
Zr874       O901   2.435       .  S
Zr874       O876   2.439       .  S
Zr874       O877   2.390       .  S
Zr874       O878   2.384       .  S
O875        H912   0.990       .  S
O876        H907   0.990       .  S
O876        H921   0.990       .  S
O878        H904   0.965       .  S
O879       Zr889   2.380       .  S
O880       Zr889   2.370       .  S
O880        H905   0.966   1_554  S
C881       C1166   1.472       .  S
C882       C1093   1.508       .  S
C883       C1221   1.496       .  S
O884        H920   0.990       .  S
O885        C887   1.289       .  A
O886        C887   1.283       .  A
C887       C1294   1.484       .  S
O888       Zr889   2.438       .  S
O888        H917   0.991       .  S
Zr889       O892   2.436       .  S
Zr889       O893   2.435   1_554  S
Zr889       O894   2.424       .  S
O890        C895   1.282       .  A
O891        H908   0.990       .  S
O891        H923   0.990       .  S
O892        H909   0.990       .  S
O893        H913   0.990       .  S
O893        H922   0.990       .  S
O894        C895   1.282       .  A
C895       C1198   1.473   1_554  S
O896        H915   0.990       .  S
O896        H919   0.991       .  S
O897        H911   0.990   1_554  S
O897        H918   0.990       .  S
O898        C902   1.282       .  A
O899        C902   1.286       .  A
O900        H910   0.990       .  S
O901        H914   0.990       .  S
C902       C2533   1.481       .  S
Zr925       O926   2.441       .  S
Zr925       O927   2.475       .  S
Zr925       O928   2.465       .  S
Zr925       O931   2.479       .  S
Zr925       O933   2.393       .  S
Zr925       O934   2.390       .  S
Zr925       O935   2.424       .  S
Zr925       O936   2.395       .  S
O926        H982   0.990       .  S
O926        H990   0.991       .  S
O927        C947   1.290       .  A
O928        C949   1.289       .  A
O929       Zr939   2.406       .  S
O929        C948   1.280       .  A
O930       Zr938   2.426       .  S
O930        C949   1.283       .  A
O931        C948   1.293       .  A
O932       Zr940   2.398       .  S
O932        C947   1.276       .  A
O933       Zr938   2.404       .  S
O933       Zr940   2.383       .  S
O934       Zr939   2.393       .  S
O934       Zr940   2.382       .  S
O934        H969   0.966       .  S
O935       Zr938   2.409       .  S
O935       Zr955   2.396       .  S
O935        H972   0.965       .  S
O936       Zr939   2.386       .  S
O936       Zr955   2.386       .  S
Zr937       O962   2.442       .  S
Zr937       O956   2.443       .  S
Zr937       O964   2.426       .  S
Zr937       O952   2.447       .  S
Zr937       O943   2.403       .  S
Zr937       O944   2.410       .  S
Zr937       O945   2.379       .  S
Zr937       O946   2.381       .  S
Zr938       O957   2.437       .  S
Zr938       O950   2.434       .  S
Zr938       O951   2.456       .  S
Zr938       O944   2.396       .  S
Zr938       O945   2.401       .  S
Zr939       O941   2.435       .  S
Zr939       O963   2.439       .  S
Zr939       O965   2.412       .  S
Zr939       O943   2.383       .  S
Zr939       O946   2.397       .  S
Zr940       O966   2.436       .  S
Zr940       O967   2.436   1_455  S
Zr940       O942   2.436       .  S
Zr940       O943   2.385       .  S
Zr940       O944   2.383       .  S
O941        H978   0.990       .  S
O942        H973   0.990   1_455  S
O942        H987   0.990       .  S
O944        H970   0.964       .  S
O945       Zr955   2.382       .  S
O946       Zr955   2.380       .  S
O946        H971   0.968       .  S
C947       C1061   1.483       .  S
C948       C1518   1.487       .  S
C949       C1486   1.494       .  S
O950        H986   0.990       .  S
O951        C953   1.288       .  A
O952        C953   1.286       .  A
C953       C2062   1.496       .  S
O954       Zr955   2.435       .  S
O954        H983   0.990       .  S
Zr955       O958   2.435       .  S
Zr955       O959   2.438       .  S
Zr955       O960   2.419       .  S
O956        C961   1.286       .  A
O957        H974   0.990       .  S
O957        H989   0.990       .  S
O958        H975   0.990       .  S
O959        H979   0.990       .  S
O959        H988   0.990       .  S
O960        C961   1.279       .  A
C961       C1614   1.497       .  S
O962        H981   0.990       .  S
O962        H985   0.990       .  S
O963        H977   0.990       .  S
O963        H984   0.990       .  S
O964        C968   1.283       .  A
O965        C968   1.280       .  A
O966        H976   0.990       .  S
O967        H980   0.990   1_655  S
C968       C1678   1.461       .  S
Zr991       O992   2.440       .  S
Zr991       O993   2.467       .  S
Zr991       O994   2.473       .  S
Zr991       O997   2.458       .  S
Zr991       O999   2.384       .  S
Zr991      O1000   2.394       .  S
Zr991      O1001   2.418       .  S
Zr991      O1002   2.415       .  S
O992       H1048   0.990       .  S
O992       H1056   0.991       .  S
O993       C1013   1.288       .  A
O994       C1015   1.291       .  A
O995      Zr1005   2.415       .  S
O995       C1014   1.282       .  A
O996      Zr1004   2.427       .  S
O996       C1015   1.282       .  A
O997       C1014   1.289       .  A
O998      Zr1006   2.385       .  S
O998       C1013   1.275       .  A
O999      Zr1004   2.398       .  S
O999      Zr1006   2.391       .  S
O1000     Zr1005   2.399       .  S
O1000     Zr1006   2.377       .  S
O1000      H1035   0.966       .  S
O1001     Zr1004   2.400       .  S
O1001     Zr1021   2.395       .  S
O1001      H1038   0.963       .  S
O1002     Zr1005   2.396       .  S
O1002     Zr1021   2.397       .  S
Zr1003     O1028   2.443       .  S
Zr1003     O1022   2.426       .  S
Zr1003     O1030   2.421       .  S
Zr1003     O1018   2.411       .  S
Zr1003     O1009   2.394       .  S
Zr1003     O1010   2.401       .  S
Zr1003     O1011   2.374       .  S
Zr1003     O1012   2.377       .  S
Zr1004     O1023   2.439       .  S
Zr1004     O1016   2.434       .  S
Zr1004     O1017   2.433       .  S
Zr1004     O1010   2.401       .  S
Zr1004     O1011   2.391       .  S
Zr1005     O1007   2.435       .  S
Zr1005     O1029   2.436       .  S
Zr1005     O1031   2.437       .  S
Zr1005     O1009   2.387       .  S
Zr1005     O1012   2.397       .  S
Zr1006     O1032   2.439   1_655  S
Zr1006     O1033   2.436   1_655  S
Zr1006     O1008   2.438       .  S
Zr1006     O1009   2.383       .  S
Zr1006     O1010   2.378       .  S
O1007      H1044   0.990       .  S
O1008      H1039   0.990   1_655  S
O1008      H1053   0.990       .  S
O1010      H1036   0.965       .  S
O1011     Zr1021   2.377       .  S
O1012     Zr1021   2.375       .  S
O1012      H1037   0.966       .  S
C1013      C1070   1.484       .  S
C1014      C2085   1.493       .  S
C1015      C1102   1.497       .  S
O1016      H1052   0.989       .  S
O1017      C1019   1.284       .  A
O1018      C1019   1.281       .  A
C1019      C1774   1.466       .  S
O1020     Zr1021   2.434       .  S
O1020      H1049   0.990       .  S
Zr1021     O1024   2.437       .  S
Zr1021     O1025   2.438       .  S
Zr1021     O1026   2.429       .  S
O1022      C1027   1.281       .  A
O1023      H1040   0.990       .  S
O1023      H1055   0.990       .  S
O1024      H1041   0.989       .  S
O1025      H1045   0.990       .  S
O1025      H1054   0.990       .  S
O1026      C1027   1.282       .  A
C1027      C1134   1.474       .  S
O1028      H1047   0.990       .  S
O1028      H1051   0.990       .  S
O1029      H1043   0.990       .  S
O1029      H1050   0.990       .  S
O1030      C1034   1.282       .  A
O1031      C1034   1.284       .  A
O1032      H1042   0.990   1_455  S
O1033      H1046   0.990       .  S
C1034      C1454   1.486       .  S
C1057      C1058   1.399       .  A
C1057      C1062   1.403       .  A
C1057      H1067   1.084   1_455  S
C1058      C1063   1.487   1_455  S
C1058      C1059   1.414       .  A
C1059      C1060   1.410       .  A
C1059      C1064   1.506   1_554  S
C1060      C1061   1.405       .  A
C1060      H1065   1.084       .  S
C1061      C1062   1.417       .  A
C1062      C1066   1.507       .  S
C1063      C1068   1.408       .  A
C1063      C1072   1.406   1_554  A
C1064      H1080   1.110       .  S
C1064      H1081   1.111       .  S
C1064      H1082   1.111       .  S
C1066      H1077   1.111   1_455  S
C1066      H1078   1.107       .  S
C1066      H1079   1.110       .  S
C1068      C1069   1.399   1_554  A
C1068      C1073   1.508   1_655  S
C1069      C1070   1.408       .  A
C1069      H1074   1.085       .  S
C1070      C1071   1.418       .  A
C1071      C1072   1.410       .  A
C1071      C1075   1.508       .  S
C1072      H1076   1.084       .  S
C1073      H1083   1.111       .  S
C1073      H1084   1.109       .  S
C1073      H1085   1.111       .  S
C1075      H1086   1.110       .  S
C1075      H1087   1.104       .  S
C1075      H1088   1.110       .  S
C1089      C1090   1.403       .  A
C1089      C1094   1.415       .  A
C1089      H1099   1.084       .  S
C1090      C1095   1.498       .  S
C1090      C1091   1.412       .  A
C1091      C1092   1.407       .  A
C1091      C1096   1.509   1_554  S
C1092      C1093   1.412       .  A
C1092      H1097   1.084       .  S
C1093      C1094   1.421       .  A
C1094      C1098   1.504       .  S
C1095      C1100   1.413   1_554  A
C1095      C1104   1.402       .  A
C1096      H1112   1.110       .  S
C1096      H1113   1.111       .  S
C1096      H1114   1.111       .  S
C1098      H1109   1.111       .  S
C1098      H1110   1.107       .  S
C1098      H1111   1.111       .  S
C1100      C1101   1.410       .  A
C1100      C1105   1.506       .  S
C1101      C1102   1.408       .  A
C1101      H1106   1.084       .  S
C1102      C1103   1.422       .  A
C1103      C1104   1.409   1_556  A
C1103      C1107   1.508   1_556  S
C1104      H1108   1.084       .  S
C1105      H1115   1.111       .  S
C1105      H1116   1.110       .  S
C1105      H1117   1.110       .  S
C1107      H1118   1.111       .  S
C1107      H1119   1.110       .  S
C1107      H1120   1.109   1_554  S
C1121      C1122   1.401       .  A
C1121      C1126   1.406       .  A
C1121      H1131   1.084       .  S
C1122      C1127   1.481       .  S
C1122      C1123   1.409       .  A
C1123      C1124   1.402       .  A
C1123      C1128   1.506       .  S
C1124      C1125   1.405       .  A
C1124      H1129   1.083       .  S
C1125      C1126   1.418       .  A
C1126      C1130   1.507       .  S
C1127      C1132   1.412       .  A
C1127      C1136   1.402       .  A
C1128      H1144   1.110       .  S
C1128      H1145   1.110       .  S
C1128      H1146   1.111       .  S
C1130      H1141   1.111       .  S
C1130      H1142   1.109       .  S
C1130      H1143   1.111       .  S
C1132      C1133   1.402       .  A
C1132      C1137   1.507       .  S
C1133      C1134   1.401       .  A
C1133      H1138   1.084       .  S
C1134      C1135   1.414       .  A
C1135      C1136   1.406       .  A
C1135      C1139   1.507       .  S
C1136      H1140   1.084       .  S
C1137      H1147   1.111       .  S
C1137      H1148   1.110       .  S
C1137      H1149   1.110       .  S
C1139      H1150   1.110       .  S
C1139      H1151   1.110       .  S
C1139      H1152   1.111       .  S
C1153      C1154   1.405       .  A
C1153      C1158   1.410       .  A
C1153      H1163   1.084       .  S
C1154      C1159   1.482       .  S
C1154      C1155   1.406       .  A
C1155      C1156   1.398       .  A
C1155      C1160   1.508       .  S
C1156      C1157   1.412       .  A
C1156      H1161   1.084       .  S
C1157      C1158   1.417       .  A
C1158      C1162   1.506       .  S
C1159      C1164   1.412       .  A
C1159      C1168   1.402       .  A
C1160      H1176   1.110       .  S
C1160      H1177   1.111       .  S
C1160      H1178   1.111       .  S
C1162      H1173   1.110       .  S
C1162      H1174   1.111       .  S
C1162      H1175   1.110       .  S
C1164      C1165   1.404       .  A
C1164      C1169   1.506       .  S
C1165      C1166   1.401       .  A
C1165      H1170   1.084       .  S
C1166      C1167   1.416       .  A
C1167      C1168   1.404       .  A
C1167      C1171   1.508       .  S
C1168      H1172   1.084       .  S
C1169      H1179   1.111       .  S
C1169      H1180   1.110       .  S
C1169      H1181   1.110       .  S
C1171      H1182   1.111       .  S
C1171      H1183   1.110       .  S
C1171      H1184   1.109       .  S
C1185      C1186   1.401       .  A
C1185      C1190   1.407       .  A
C1185      H1195   1.084       .  S
C1186      C1191   1.480       .  S
C1186      C1187   1.409       .  A
C1187      C1188   1.401       .  A
C1187      C1192   1.507       .  S
C1188      C1189   1.405       .  A
C1188      H1193   1.084       .  S
C1189      C1190   1.418       .  A
C1190      C1194   1.507       .  S
C1191      C1196   1.412       .  A
C1191      C1200   1.402       .  A
C1192      H1208   1.110       .  S
C1192      H1209   1.110       .  S
C1192      H1210   1.111       .  S
C1194      H1205   1.111       .  S
C1194      H1206   1.111       .  S
C1194      H1207   1.110       .  S
C1196      C1197   1.401       .  A
C1196      C1201   1.507       .  S
C1197      C1198   1.401       .  A
C1197      H1202   1.084       .  S
C1198      C1199   1.414       .  A
C1199      C1200   1.406       .  A
C1199      C1203   1.507   1_556  S
C1200      H1204   1.084       .  S
C1201      H1211   1.111       .  S
C1201      H1212   1.110       .  S
C1201      H1213   1.110       .  S
C1203      H1214   1.109       .  S
C1203      H1215   1.111       .  S
C1203      H1216   1.111       .  S
C1217      C1218   1.404       .  A
C1217      C1222   1.410       .  A
C1217      H1227   1.084       .  S
C1218      C1223   1.498       .  S
C1218      C1219   1.413       .  A
C1219      C1220   1.408       .  A
C1219      C1224   1.507       .  S
C1220      C1221   1.408       .  A
C1220      H1225   1.084       .  S
C1221      C1222   1.420       .  A
C1222      C1226   1.508       .  S
C1223      C1228   1.414       .  A
C1223      C1232   1.404       .  A
C1224      H1240   1.109       .  S
C1224      H1241   1.110       .  S
C1224      H1242   1.111       .  S
C1226      H1237   1.108       .  S
C1226      H1238   1.111       .  S
C1226      H1239   1.110       .  S
C1228      C1229   1.407       .  A
C1228      C1233   1.508       .  S
C1229      C1230   1.408       .  A
C1229      H1234   1.084       .  S
C1230      C1231   1.421       .  A
C1231      C1232   1.412       .  A
C1231      C1235   1.505       .  S
C1232      H1236   1.084       .  S
C1233      H1243   1.111       .  S
C1233      H1244   1.109       .  S
C1233      H1245   1.111       .  S
C1235      H1246   1.111       .  S
C1235      H1247   1.106       .  S
C1235      H1248   1.111       .  S
C1249      C1250   1.396       .  A
C1249      C1254   1.401       .  A
C1249      H1259   1.085       .  S
C1250      C1255   1.482       .  S
C1250      C1251   1.412       .  A
C1251      C1252   1.408       .  A
C1251      C1256   1.505       .  S
C1252      C1253   1.405       .  A
C1252      H1257   1.084       .  S
C1253      C1254   1.424       .  A
C1254      C1258   1.510       .  S
C1255      C1260   1.413       .  A
C1255      C1264   1.397       .  A
C1256      H1272   1.110       .  S
C1256      H1273   1.109       .  S
C1256      H1274   1.111       .  S
C1258      H1269   1.108       .  S
C1258      H1270   1.111       .  S
C1258      H1271   1.110       .  S
C1260      C1261   1.409       .  A
C1260      C1265   1.506       .  S
C1261      C1262   1.404       .  A
C1261      H1266   1.084       .  S
C1262      C1263   1.419       .  A
C1263      C1264   1.400       .  A
C1263      C1267   1.508       .  S
C1264      H1268   1.085       .  S
C1265      H1275   1.111       .  S
C1265      H1276   1.110       .  S
C1265      H1277   1.110       .  S
C1267      H1278   1.111       .  S
C1267      H1279   1.108       .  S
C1267      H1280   1.110       .  S
C1281      C1282   1.404       .  A
C1281      C1286   1.406       .  A
C1281      H1291   1.084       .  S
C1282      C1287   1.486       .  S
C1282      C1283   1.412       .  A
C1283      C1284   1.407       .  A
C1283      C1288   1.507       .  S
C1284      C1285   1.404       .  A
C1284      H1289   1.084       .  S
C1285      C1286   1.412       .  A
C1286      C1290   1.507       .  S
C1287      C1292   1.411       .  A
C1287      C1296   1.402       .  A
C1288      H1304   1.110       .  S
C1288      H1305   1.108       .  S
C1288      H1306   1.111       .  S
C1290      H1301   1.111       .  S
C1290      H1302   1.110       .  S
C1290      H1303   1.110       .  S
C1292      C1293   1.407       .  A
C1292      C1297   1.506       .  S
C1293      C1294   1.406       .  A
C1293      H1298   1.084       .  S
C1294      C1295   1.418       .  A
C1295      C1296   1.405       .  A
C1295      C1299   1.508       .  S
C1296      H1300   1.085       .  S
C1297      H1307   1.111       .  S
C1297      H1308   1.110       .  S
C1297      H1309   1.108       .  S
C1299      H1310   1.111       .  S
C1299      H1311   1.108       .  S
C1299      H1312   1.111       .  S
C1313      C1314   1.404       .  A
C1313      C1318   1.407       .  A
C1313      H1323   1.084       .  S
C1314      C1319   1.492       .  S
C1314      C1315   1.411       .  A
C1315      C1316   1.409       .  A
C1315      C1320   1.505       .  S
C1316      C1317   1.407       .  A
C1316      H1321   1.084       .  S
C1317      C1318   1.418       .  A
C1318      C1322   1.508       .  S
C1319      C1324   1.412       .  A
C1319      C1328   1.406       .  A
C1320      H1336   1.110       .  S
C1320      H1337   1.110       .  S
C1320      H1338   1.111       .  S
C1322      H1333   1.111       .  S
C1322      H1334   1.110       .  S
C1322      H1335   1.109       .  S
C1324      C1325   1.403       .  A
C1324      C1329   1.507       .  S
C1325      C1326   1.404       .  A
C1325      H1330   1.084       .  S
C1326      C1327   1.417       .  A
C1327      C1328   1.412       .  A
C1327      C1331   1.506       .  S
C1328      H1332   1.084       .  S
C1329      H1339   1.111       .  S
C1329      H1340   1.109       .  S
C1329      H1341   1.110       .  S
C1331      H1342   1.110       .  S
C1331      H1343   1.110       .  S
C1331      H1344   1.111       .  S
C1345      C1346   1.403       .  A
C1345      C1350   1.410       .  A
C1345      H1355   1.084       .  S
C1346      C1351   1.487   1_655  S
C1346      C1347   1.412       .  A
C1347      C1348   1.404       .  A
C1347      C1352   1.507   1_655  S
C1348      C1349   1.404       .  A
C1348      H1353   1.084       .  S
C1349      C1350   1.417       .  A
C1350      C1354   1.506       .  S
C1351      C1356   1.412       .  A
C1351      C1360   1.401       .  A
C1352      H1368   1.110       .  S
C1352      H1369   1.110       .  S
C1352      H1370   1.111       .  S
C1354      H1365   1.111       .  S
C1354      H1366   1.110       .  S
C1354      H1367   1.109       .  S
C1356      C1357   1.409       .  A
C1356      C1361   1.505       .  S
C1357      C1358   1.406       .  A
C1357      H1362   1.084       .  S
C1358      C1359   1.416       .  A
C1359      C1360   1.404       .  A
C1359      C1363   1.509       .  S
C1360      H1364   1.084       .  S
C1361      H1371   1.111       .  S
C1361      H1372   1.110       .  S
C1361      H1373   1.110       .  S
C1363      H1374   1.111       .  S
C1363      H1375   1.110       .  S
C1363      H1376   1.109       .  S
C1377      C1378   1.399       .  A
C1377      C1382   1.405       .  A
C1377      H1387   1.085       .  S
C1378      C1383   1.494       .  S
C1378      C1379   1.412       .  A
C1379      C1380   1.415       .  A
C1379      C1384   1.505       .  S
C1380      C1381   1.414       .  A
C1380      H1385   1.084       .  S
C1381      C1382   1.424       .  A
C1382      C1386   1.509       .  S
C1383      C1388   1.415       .  A
C1383      C1392   1.403       .  A
C1384      H1400   1.110       .  S
C1384      H1401   1.110       .  S
C1384      H1402   1.111       .  S
C1386      H1397   1.111       .  S
C1386      H1398   1.110       .  S
C1386      H1399   1.109       .  S
C1388      C1389   1.409       .  A
C1388      C1393   1.506       .  S
C1389      C1390   1.405       .  A
C1389      H1394   1.084       .  S
C1390      C1391   1.415       .  A
C1391      C1392   1.409       .  A
C1391      C1395   1.506       .  S
C1392      H1396   1.084       .  S
C1393      H1403   1.111       .  S
C1393      H1404   1.109       .  S
C1393      H1405   1.110       .  S
C1395      H1406   1.108       .  S
C1395      H1407   1.111       .  S
C1395      H1408   1.111       .  S
C1409      C1410   1.405       .  A
C1409      C1414   1.411       .  A
C1409      H1419   1.084       .  S
C1410      C1415   1.485       .  S
C1410      C1411   1.407       .  A
C1411      C1412   1.401       .  A
C1411      C1416   1.508       .  S
C1412      C1413   1.411       .  A
C1412      H1417   1.084       .  S
C1413      C1414   1.418       .  A
C1414      C1418   1.506       .  S
C1415      C1420   1.414       .  A
C1415      C1424   1.399       .  A
C1416      H1432   1.110       .  S
C1416      H1433   1.111       .  S
C1416      H1434   1.111       .  S
C1418      H1429   1.110       .  S
C1418      H1430   1.111       .  S
C1418      H1431   1.110       .  S
C1420      C1421   1.408       .  A
C1420      C1425   1.505       .  S
C1421      C1422   1.403       .  A
C1421      H1426   1.084       .  S
C1422      C1423   1.416       .  A
C1423      C1424   1.400       .  A
C1423      C1427   1.508       .  S
C1424      H1428   1.085       .  S
C1425      H1435   1.111       .  S
C1425      H1436   1.110       .  S
C1425      H1437   1.110       .  S
C1427      H1438   1.110       .  S
C1427      H1439   1.109       .  S
C1427      H1440   1.111       .  S
C1441      C1442   1.399       .  A
C1441      C1446   1.403       .  A
C1441      H1451   1.084       .  S
C1442      C1447   1.478       .  S
C1442      C1443   1.409       .  A
C1443      C1444   1.402       .  A
C1443      C1448   1.506       .  S
C1444      C1445   1.406       .  A
C1444      H1449   1.084       .  S
C1445      C1446   1.419       .  A
C1446      C1450   1.508       .  S
C1447      C1452   1.407       .  A
C1447      C1456   1.402       .  A
C1448      H1464   1.110   1_455  S
C1448      H1465   1.110       .  S
C1448      H1466   1.111       .  S
C1450      H1461   1.110       .  S
C1450      H1462   1.111       .  S
C1450      H1463   1.109       .  S
C1452      C1453   1.397       .  A
C1452      C1457   1.509       .  S
C1453      C1454   1.407   1_455  A
C1453      H1458   1.084       .  S
C1454      C1455   1.419       .  A
C1455      C1456   1.409   1_655  A
C1455      C1459   1.506       .  S
C1456      H1460   1.084       .  S
C1457      H1467   1.111       .  S
C1457      H1468   1.110       .  S
C1457      H1469   1.110       .  S
C1459      H1470   1.110       .  S
C1459      H1471   1.110       .  S
C1459      H1472   1.111       .  S
C1473      C1474   1.401       .  A
C1473      C1478   1.406       .  A
C1473      H1483   1.084       .  S
C1474      C1479   1.489       .  S
C1474      C1475   1.413       .  A
C1475      C1476   1.408       .  A
C1475      C1480   1.507       .  S
C1476      C1477   1.405       .  A
C1476      H1481   1.084       .  S
C1477      C1478   1.417       .  A
C1478      C1482   1.507       .  S
C1479      C1484   1.410       .  A
C1479      C1488   1.400       .  A
C1480      H1496   1.110       .  S
C1480      H1497   1.110       .  S
C1480      H1498   1.111       .  S
C1482      H1493   1.110       .  S
C1482      H1494   1.110       .  S
C1482      H1495   1.109       .  S
C1484      C1485   1.409       .  A
C1484      C1489   1.505       .  S
C1485      C1486   1.410       .  A
C1485      H1490   1.084       .  S
C1486      C1487   1.421       .  A
C1487      C1488   1.405       .  A
C1487      C1491   1.509       .  S
C1488      H1492   1.084       .  S
C1489      H1499   1.110       .  S
C1489      H1500   1.110       .  S
C1489      H1501   1.111       .  S
C1491      H1502   1.111       .  S
C1491      H1503   1.110       .  S
C1491      H1504   1.109       .  S
C1505      C1506   1.400   1_556  A
C1505      C1510   1.408       .  A
C1505      H1515   1.084       .  S
C1506      C1511   1.485       .  S
C1506      C1507   1.410       .  A
C1507      C1508   1.403       .  A
C1507      C1512   1.508       .  S
C1508      C1509   1.409   1_554  A
C1508      H1513   1.084       .  S
C1509      C1510   1.420       .  A
C1510      C1514   1.504       .  S
C1511      C1516   1.408       .  A
C1511      C1520   1.403       .  A
C1512      H1528   1.110       .  S
C1512      H1529   1.110       .  S
C1512      H1530   1.111       .  S
C1514      H1525   1.108       .  S
C1514      H1526   1.111       .  S
C1514      H1527   1.110       .  S
C1516      C1517   1.404       .  A
C1516      C1521   1.507   1_554  S
C1517      C1518   1.408       .  A
C1517      H1522   1.084       .  S
C1518      C1519   1.417       .  A
C1519      C1520   1.408       .  A
C1519      C1523   1.506       .  S
C1520      H1524   1.084       .  S
C1521      H1531   1.111       .  S
C1521      H1532   1.110       .  S
C1521      H1533   1.110       .  S
C1523      H1534   1.111       .  S
C1523      H1535   1.110       .  S
C1523      H1536   1.110       .  S
C1537      C1538   1.401       .  A
C1537      C1542   1.404       .  A
C1537      H1547   1.084       .  S
C1538      C1543   1.476       .  S
C1538      C1539   1.408       .  A
C1539      C1540   1.400       .  A
C1539      C1544   1.507       .  S
C1540      C1541   1.405       .  A
C1540      H1545   1.084       .  S
C1541      C1542   1.417       .  A
C1542      C1546   1.507       .  S
C1543      C1548   1.407       .  A
C1543      C1552   1.400       .  A
C1544      H1560   1.110       .  S
C1544      H1561   1.110       .  S
C1544      H1562   1.111       .  S
C1546      H1557   1.111       .  S
C1546      H1558   1.109       .  S
C1546      H1559   1.110       .  S
C1548      C1549   1.397       .  A
C1548      C1553   1.508       .  S
C1549      C1550   1.408       .  A
C1549      H1554   1.083       .  S
C1550      C1551   1.422       .  A
C1551      C1552   1.407       .  A
C1551      C1555   1.507       .  S
C1552      H1556   1.084       .  S
C1553      H1563   1.111       .  S
C1553      H1564   1.110       .  S
C1553      H1565   1.110       .  S
C1555      H1566   1.110       .  S
C1555      H1567   1.110       .  S
C1555      H1568   1.111       .  S
C1569      C1570   1.401       .  A
C1569      C1574   1.408       .  A
C1569      H1579   1.084       .  S
C1570      C1575   1.490       .  S
C1570      C1571   1.414       .  A
C1571      C1572   1.408       .  A
C1571      C1576   1.507       .  S
C1572      C1573   1.405       .  A
C1572      H1577   1.084       .  S
C1573      C1574   1.419       .  A
C1574      C1578   1.508       .  S
C1575      C1580   1.410       .  A
C1575      C1584   1.401       .  A
C1576      H1592   1.110       .  S
C1576      H1593   1.109       .  S
C1576      H1594   1.111       .  S
C1578      H1589   1.111       .  S
C1578      H1590   1.108       .  S
C1578      H1591   1.110       .  S
C1580      C1581   1.409       .  A
C1580      C1585   1.505       .  S
C1581      C1582   1.410       .  A
C1581      H1586   1.084       .  S
C1582      C1583   1.422       .  A
C1583      C1584   1.406       .  A
C1583      C1587   1.509       .  S
C1584      H1588   1.084       .  S
C1585      H1595   1.111       .  S
C1585      H1596   1.110       .  S
C1585      H1597   1.109       .  S
C1587      H1598   1.111       .  S
C1587      H1599   1.110       .  S
C1587      H1600   1.109       .  S
C1601      C1602   1.402       .  A
C1601      C1606   1.408       .  A
C1601      H1611   1.084       .  S
C1602      C1607   1.482       .  S
C1602      C1603   1.409       .  A
C1603      C1604   1.399       .  A
C1603      C1608   1.508       .  S
C1604      C1605   1.406       .  A
C1604      H1609   1.084       .  S
C1605      C1606   1.419       .  A
C1606      C1610   1.507       .  S
C1607      C1612   1.409       .  A
C1607      C1616   1.398       .  A
C1608      H1624   1.110       .  S
C1608      H1625   1.110       .  S
C1608      H1626   1.111       .  S
C1610      H1621   1.111       .  S
C1610      H1622   1.110       .  S
C1610      H1623   1.104       .  S
C1612      C1613   1.404       .  A
C1612      C1617   1.507       .  S
C1613      C1614   1.410       .  A
C1613      H1618   1.084       .  S
C1614      C1615   1.425       .  A
C1615      C1616   1.406       .  A
C1615      C1619   1.508       .  S
C1616      H1620   1.084       .  S
C1617      H1627   1.111       .  S
C1617      H1628   1.110       .  S
C1617      H1629   1.110       .  S
C1619      H1630   1.111       .  S
C1619      H1631   1.110       .  S
C1619      H1632   1.110       .  S
C1633      C1634   1.401       .  A
C1633      C1638   1.403       .  A
C1633      H1643   1.084       .  S
C1634      C1639   1.488       .  S
C1634      C1635   1.414       .  A
C1635      C1636   1.409       .  A
C1635      C1640   1.505       .  S
C1636      C1637   1.403       .  A
C1636      H1641   1.084       .  S
C1637      C1638   1.416       .  A
C1638      C1642   1.508       .  S
C1639      C1644   1.406       .  A
C1639      C1648   1.405       .  A
C1640      H1656   1.110       .  S
C1640      H1657   1.111       .  S
C1640      H1658   1.111       .  S
C1642      H1653   1.111       .  S
C1642      H1654   1.110       .  S
C1642      H1655   1.109       .  S
C1644      C1645   1.402       .  A
C1644      C1649   1.507       .  S
C1645      C1646   1.412       .  A
C1645      H1650   1.084       .  S
C1646      C1647   1.419       .  A
C1647      C1648   1.412       .  A
C1647      C1651   1.506       .  S
C1648      H1652   1.084       .  S
C1649      H1659   1.111       .  S
C1649      H1660   1.110       .  S
C1649      H1661   1.110       .  S
C1651      H1662   1.110       .  S
C1651      H1663   1.110       .  S
C1651      H1664   1.111       .  S
C1665      C1666   1.399       .  A
C1665      C1670   1.398       .  A
C1665      H1675   1.085       .  S
C1666      C1671   1.472   1_655  S
C1666      C1667   1.407       .  A
C1667      C1668   1.403       .  A
C1667      C1672   1.506   1_655  S
C1668      C1669   1.408       .  A
C1668      H1673   1.084       .  S
C1669      C1670   1.416       .  A
C1670      C1674   1.509       .  S
C1671      C1676   1.411       .  A
C1671      C1680   1.401       .  A
C1672      H1688   1.110       .  S
C1672      H1689   1.110       .  S
C1672      H1690   1.111       .  S
C1674      H1685   1.110       .  S
C1674      H1686   1.111       .  S
C1674      H1687   1.107       .  S
C1676      C1677   1.398       .  A
C1676      C1681   1.507       .  S
C1677      C1678   1.399       .  A
C1677      H1682   1.084       .  S
C1678      C1679   1.411       .  A
C1679      C1680   1.402       .  A
C1679      C1683   1.507       .  S
C1680      H1684   1.084   1_455  S
C1681      H1691   1.111       .  S
C1681      H1692   1.110       .  S
C1681      H1693   1.110       .  S
C1683      H1694   1.111       .  S
C1683      H1695   1.110       .  S
C1683      H1696   1.111   1_455  S
C1697      C1698   1.401       .  A
C1697      C1702   1.413   1_545  A
C1697      H1707   1.084       .  S
C1698      C1703   1.492       .  S
C1698      C1699   1.410       .  A
C1699      C1700   1.405   1_545  A
C1699      C1704   1.508       .  S
C1700      C1701   1.411       .  A
C1700      H1705   1.084       .  S
C1701      C1702   1.424       .  A
C1702      C1706   1.504       .  S
C1703      C1708   1.410       .  A
C1703      C1712   1.404       .  A
C1704      H1720   1.110       .  S
C1704      H1721   1.110       .  S
C1704      H1722   1.111       .  S
C1706      H1717   1.111       .  S
C1706      H1718   1.110       .  S
C1706      H1719   1.108       .  S
C1708      C1709   1.407       .  A
C1708      C1713   1.506       .  S
C1709      C1710   1.409       .  A
C1709      H1714   1.084       .  S
C1710      C1711   1.417       .  A
C1711      C1712   1.410       .  A
C1711      C1715   1.506       .  S
C1712      H1716   1.084       .  S
C1713      H1723   1.111       .  S
C1713      H1724   1.110       .  S
C1713      H1725   1.110       .  S
C1715      H1726   1.111       .  S
C1715      H1727   1.109       .  S
C1715      H1728   1.111       .  S
C1729      C1730   1.402   1_655  A
C1729      C1734   1.405       .  A
C1729      H1739   1.084       .  S
C1730      C1735   1.481       .  S
C1730      C1731   1.412       .  A
C1731      C1732   1.403       .  A
C1731      C1736   1.508       .  S
C1732      C1733   1.402   1_455  A
C1732      H1737   1.084       .  S
C1733      C1734   1.414       .  A
C1734      C1738   1.507       .  S
C1735      C1740   1.409       .  A
C1735      C1744   1.400       .  A
C1736      H1752   1.110       .  S
C1736      H1753   1.109       .  S
C1736      H1754   1.111       .  S
C1738      H1749   1.109       .  S
C1738      H1750   1.110       .  S
C1738      H1751   1.110       .  S
C1740      C1741   1.405       .  A
C1740      C1745   1.506       .  S
C1741      C1742   1.409       .  A
C1741      H1746   1.084       .  S
C1742      C1743   1.419       .  A
C1743      C1744   1.403       .  A
C1743      C1747   1.508       .  S
C1744      H1748   1.084       .  S
C1745      H1755   1.111       .  S
C1745      H1756   1.110       .  S
C1745      H1757   1.109       .  S
C1747      H1758   1.111       .  S
C1747      H1759   1.109       .  S
C1747      H1760   1.110       .  S
C1761      C1762   1.402       .  A
C1761      C1766   1.400       .  A
C1761      H1771   1.085       .  S
C1762      C1767   1.471   1_455  S
C1762      C1763   1.408       .  A
C1763      C1764   1.399       .  A
C1763      C1768   1.508   1_455  S
C1764      C1765   1.402       .  A
C1764      H1769   1.085       .  S
C1765      C1766   1.411       .  A
C1766      C1770   1.508       .  S
C1767      C1772   1.409       .  A
C1767      C1776   1.399       .  A
C1768      H1784   1.110       .  S
C1768      H1785   1.108       .  S
C1768      H1786   1.111       .  S
C1770      H1781   1.110       .  S
C1770      H1782   1.110       .  S
C1770      H1783   1.109       .  S
C1772      C1773   1.402       .  A
C1772      C1777   1.507   1_655  S
C1773      C1774   1.404       .  A
C1773      H1778   1.084       .  S
C1774      C1775   1.415       .  A
C1775      C1776   1.398       .  A
C1775      C1779   1.509       .  S
C1776      H1780   1.085       .  S
C1777      H1787   1.111       .  S
C1777      H1788   1.110       .  S
C1777      H1789   1.108       .  S
C1779      H1790   1.110       .  S
C1779      H1791   1.108       .  S
C1779      H1792   1.110       .  S
C1793      C1794   1.401       .  A
C1793      C1798   1.400       .  A
C1793      H1803   1.084       .  S
C1794      C1799   1.475       .  S
C1794      C1795   1.409       .  A
C1795      C1796   1.400       .  A
C1795      C1800   1.507       .  S
C1796      C1797   1.403       .  A
C1796      H1801   1.084       .  S
C1797      C1798   1.415       .  A
C1798      C1802   1.508       .  S
C1799      C1804   1.411   1_655  A
C1799      C1808   1.401       .  A
C1800      H1816   1.109       .  S
C1800      H1817   1.110       .  S
C1800      H1818   1.111       .  S
C1802      H1813   1.111       .  S
C1802      H1814   1.110       .  S
C1802      H1815   1.109       .  S
C1804      C1805   1.399       .  A
C1804      C1809   1.508       .  S
C1805      C1806   1.403       .  A
C1805      H1810   1.084       .  S
C1806      C1807   1.412   1_455  A
C1807      C1808   1.401       .  A
C1807      C1811   1.507       .  S
C1808      H1812   1.084       .  S
C1809      H1819   1.111       .  S
C1809      H1820   1.109   1_455  S
C1809      H1821   1.110       .  S
C1811      H1822   1.111       .  S
C1811      H1823   1.111       .  S
C1811      H1824   1.110   1_655  S
C1825      C1826   1.402       .  A
C1825      C1830   1.407       .  A
C1825      H1835   1.084       .  S
C1826      C1831   1.484       .  S
C1826      C1827   1.410       .  A
C1827      C1828   1.403       .  A
C1827      C1832   1.507       .  S
C1828      C1829   1.406       .  A
C1828      H1833   1.084       .  S
C1829      C1830   1.417       .  A
C1830      C1834   1.507       .  S
C1831      C1836   1.409       .  A
C1831      C1840   1.400       .  A
C1832      H1848   1.110       .  S
C1832      H1849   1.110       .  S
C1832      H1850   1.111       .  S
C1834      H1845   1.111       .  S
C1834      H1846   1.111       .  S
C1834      H1847   1.108       .  S
C1836      C1837   1.402       .  A
C1836      C1841   1.508       .  S
C1837      C1838   1.409       .  A
C1837      H1842   1.084       .  S
C1838      C1839   1.422       .  A
C1839      C1840   1.408       .  A
C1839      C1843   1.504       .  S
C1840      H1844   1.084       .  S
C1841      H1851   1.111       .  S
C1841      H1852   1.110       .  S
C1841      H1853   1.110       .  S
C1843      H1854   1.111       .  S
C1843      H1855   1.107       .  S
C1843      H1856   1.111   1_565  S
C1857      C1858   1.404       .  A
C1857      C1862   1.408   1_564  A
C1857      H1867   1.084       .  S
C1858      C1863   1.485       .  S
C1858      C1859   1.408   1_554  A
C1859      C1860   1.401   1_565  A
C1859      C1864   1.508   1_455  S
C1860      C1861   1.407       .  A
C1860      H1865   1.085       .  S
C1861      C1862   1.419       .  A
C1862      C1866   1.508       .  S
C1863      C1868   1.406       .  A
C1863      C1872   1.406   1_455  A
C1864      H1880   1.110       .  S
C1864      H1881   1.111       .  S
C1864      H1882   1.110       .  S
C1866      H1877   1.111   1_556  S
C1866      H1878   1.110   1_556  S
C1866      H1879   1.104       .  S
C1868      C1869   1.400   1_455  A
C1868      C1873   1.508       .  S
C1869      C1870   1.412       .  A
C1869      H1874   1.084   1_655  S
C1870      C1871   1.414       .  A
C1871      C1872   1.410       .  A
C1871      C1875   1.505       .  S
C1872      H1876   1.084   1_565  S
C1873      H1883   1.111       .  S
C1873      H1884   1.110       .  S
C1873      H1885   1.110   1_554  S
C1875      H1886   1.111   1_565  S
C1875      H1887   1.110       .  S
C1875      H1888   1.109       .  S
C1889      C1890   1.403       .  A
C1889      C1894   1.407       .  A
C1889      H1899   1.084       .  S
C1890      C1895   1.482       .  S
C1890      C1891   1.411       .  A
C1891      C1892   1.402       .  A
C1891      C1896   1.507       .  S
C1892      C1893   1.402       .  A
C1892      H1897   1.084       .  S
C1893      C1894   1.414       .  A
C1894      C1898   1.507       .  S
C1895      C1900   1.410       .  A
C1895      C1904   1.400       .  A
C1896      H1912   1.110       .  S
C1896      H1913   1.110       .  S
C1896      H1914   1.111       .  S
C1898      H1909   1.111       .  S
C1898      H1910   1.110       .  S
C1898      H1911   1.110       .  S
C1900      C1901   1.406       .  A
C1900      C1905   1.506       .  S
C1901      C1902   1.406       .  A
C1901      H1906   1.084       .  S
C1902      C1903   1.418       .  A
C1903      C1904   1.402       .  A
C1903      C1907   1.510       .  S
C1904      H1908   1.085       .  S
C1905      H1915   1.110       .  S
C1905      H1916   1.110       .  S
C1905      H1917   1.110       .  S
C1907      H1918   1.110       .  S
C1907      H1919   1.107       .  S
C1907      H1920   1.111       .  S
C1921      C1922   1.403       .  A
C1921      C1926   1.405   1_554  A
C1921      H1931   1.084       .  S
C1922      C1927   1.488       .  S
C1922      C1923   1.413   1_554  A
C1923      C1924   1.404       .  A
C1923      C1928   1.508       .  S
C1924      C1925   1.405       .  A
C1924      H1929   1.084       .  S
C1925      C1926   1.417       .  A
C1926      C1930   1.508   1_556  S
C1927      C1932   1.413       .  A
C1927      C1936   1.402       .  A
C1928      H1944   1.109       .  S
C1928      H1945   1.110       .  S
C1928      H1946   1.111       .  S
C1930      H1941   1.109   1_554  S
C1930      H1942   1.111       .  S
C1930      H1943   1.110       .  S
C1932      C1933   1.402       .  A
C1932      C1937   1.509   1_554  S
C1933      C1934   1.406       .  A
C1933      H1938   1.084       .  S
C1934      C1935   1.418       .  A
C1935      C1936   1.408       .  A
C1935      C1939   1.504       .  S
C1936      H1940   1.084       .  S
C1937      H1947   1.111       .  S
C1937      H1948   1.109   1_556  S
C1937      H1949   1.110       .  S
C1939      H1950   1.111       .  S
C1939      H1951   1.106       .  S
C1939      H1952   1.111       .  S
C1953      C1954   1.398       .  A
C1953      C1958   1.402       .  A
C1953      H1963   1.085       .  S
C1954      C1959   1.480   1_655  S
C1954      C1955   1.411       .  A
C1955      C1956   1.405       .  A
C1955      C1960   1.506   1_655  S
C1956      C1957   1.404       .  A
C1956      H1961   1.084       .  S
C1957      C1958   1.419       .  A
C1958      C1962   1.509       .  S
C1959      C1964   1.412       .  A
C1959      C1968   1.399       .  A
C1960      H1976   1.110       .  S
C1960      H1977   1.110       .  S
C1960      H1978   1.111       .  S
C1962      H1973   1.111       .  S
C1962      H1974   1.110       .  S
C1962      H1975   1.104       .  S
C1964      C1965   1.404       .  A
C1964      C1969   1.507   1_455  S
C1965      C1966   1.403       .  A
C1965      H1970   1.084       .  S
C1966      C1967   1.418       .  A
C1967      C1968   1.403       .  A
C1967      C1971   1.508       .  S
C1968      H1972   1.084       .  S
C1969      H1979   1.111       .  S
C1969      H1980   1.110       .  S
C1969      H1981   1.110       .  S
C1971      H1982   1.110       .  S
C1971      H1983   1.105       .  S
C1971      H1984   1.111       .  S
C1985      C1986   1.405       .  A
C1985      C1990   1.409       .  A
C1985      H1995   1.084       .  S
C1986      C1991   1.491       .  S
C1986      C1987   1.412       .  A
C1987      C1988   1.406       .  A
C1987      C1992   1.506       .  S
C1988      C1989   1.406       .  A
C1988      H1993   1.084       .  S
C1989      C1990   1.415       .  A
C1990      C1994   1.506       .  S
C1991      C1996   1.411       .  A
C1991      C2000   1.403       .  A
C1992      H2008   1.110       .  S
C1992      H2009   1.110       .  S
C1992      H2010   1.111       .  S
C1994      H2005   1.108       .  S
C1994      H2006   1.111       .  S
C1994      H2007   1.111       .  S
C1996      C1997   1.404       .  A
C1996      C2001   1.508       .  S
C1997      C1998   1.407       .  A
C1997      H2002   1.084       .  S
C1998      C1999   1.421       .  A
C1999      C2000   1.413       .  A
C1999      C2003   1.505       .  S
C2000      H2004   1.084       .  S
C2001      H2011   1.111       .  S
C2001      H2012   1.110       .  S
C2001      H2013   1.110       .  S
C2003      H2014   1.111       .  S
C2003      H2015   1.107       .  S
C2003      H2016   1.110       .  S
C2017      C2018   1.402       .  A
C2017      C2022   1.408       .  A
C2017      H2027   1.084       .  S
C2018      C2023   1.481       .  S
C2018      C2019   1.409       .  A
C2019      C2020   1.399       .  A
C2019      C2024   1.509       .  S
C2020      C2021   1.408       .  A
C2020      H2025   1.084       .  S
C2021      C2022   1.418       .  A
C2022      C2026   1.507       .  S
C2023      C2028   1.409       .  A
C2023      C2032   1.400       .  A
C2024      H2040   1.110       .  S
C2024      H2041   1.109       .  S
C2024      H2042   1.111       .  S
C2026      H2037   1.111       .  S
C2026      H2038   1.110       .  S
C2026      H2039   1.110       .  S
C2028      C2029   1.403       .  A
C2028      C2033   1.508       .  S
C2029      C2030   1.409       .  A
C2029      H2034   1.084       .  S
C2030      C2031   1.420       .  A
C2031      C2032   1.406       .  A
C2031      C2035   1.507       .  S
C2032      H2036   1.084       .  S
C2033      H2043   1.111       .  S
C2033      H2044   1.110       .  S
C2033      H2045   1.109       .  S
C2035      H2046   1.111       .  S
C2035      H2047   1.110       .  S
C2035      H2048   1.110       .  S
C2049      C2050   1.399       .  A
C2049      C2054   1.407       .  A
C2049      H2059   1.084       .  S
C2050      C2055   1.494       .  S
C2050      C2051   1.413       .  A
C2051      C2052   1.412       .  A
C2051      C2056   1.506       .  S
C2052      C2053   1.409       .  A
C2052      H2057   1.084       .  S
C2053      C2054   1.424       .  A
C2054      C2058   1.510       .  S
C2055      C2060   1.412       .  A
C2055      C2064   1.405   1_655  A
C2056      H2072   1.110       .  S
C2056      H2073   1.108       .  S
C2056      H2074   1.111       .  S
C2058      H2069   1.108       .  S
C2058      H2070   1.111       .  S
C2058      H2071   1.111       .  S
C2060      C2061   1.406       .  A
C2060      C2065   1.508       .  S
C2061      C2062   1.408   1_655  A
C2061      H2066   1.084       .  S
C2062      C2063   1.418       .  A
C2063      C2064   1.413       .  A
C2063      C2067   1.506       .  S
C2064      H2068   1.084       .  S
C2065      H2075   1.111       .  S
C2065      H2076   1.110       .  S
C2065      H2077   1.108       .  S
C2067      H2078   1.110       .  S
C2067      H2079   1.109       .  S
C2067      H2080   1.111       .  S
C2081      C2082   1.401       .  A
C2081      C2086   1.404       .  A
C2081      H2091   1.084       .  S
C2082      C2087   1.490       .  S
C2082      C2083   1.411       .  A
C2083      C2084   1.409       .  A
C2083      C2088   1.505       .  S
C2084      C2085   1.408       .  A
C2084      H2089   1.084       .  S
C2085      C2086   1.421       .  A
C2086      C2090   1.510       .  S
C2087      C2092   1.411       .  A
C2087      C2096   1.401       .  A
C2088      H2104   1.109       .  S
C2088      H2105   1.110       .  S
C2088      H2106   1.111       .  S
C2090      H2101   1.111       .  S
C2090      H2102   1.109       .  S
C2090      H2103   1.111       .  S
C2092      C2093   1.407       .  A
C2092      C2097   1.506       .  S
C2093      C2094   1.409       .  A
C2093      H2098   1.084       .  S
C2094      C2095   1.420       .  A
C2095      C2096   1.407       .  A
C2095      C2099   1.505       .  S
C2096      H2100   1.084       .  S
C2097      H2107   1.111       .  S
C2097      H2108   1.109       .  S
C2097      H2109   1.111       .  S
C2099      H2110   1.111       .  S
C2099      H2111   1.110       .  S
C2099      H2112   1.109       .  S
C2113      C2114   1.401       .  A
C2113      C2118   1.400       .  A
C2113      H2123   1.084       .  S
C2114      C2119   1.470       .  S
C2114      C2115   1.409       .  A
C2115      C2116   1.400       .  A
C2115      C2120   1.507       .  S
C2116      C2117   1.401       .  A
C2116      H2121   1.084       .  S
C2117      C2118   1.410       .  A
C2118      C2122   1.507       .  S
C2119      C2124   1.409       .  A
C2119      C2128   1.399       .  A
C2120      H2136   1.110       .  S
C2120      H2137   1.110       .  S
C2120      H2138   1.111       .  S
C2122      H2133   1.111       .  S
C2122      H2134   1.110       .  S
C2122      H2135   1.110       .  S
C2124      C2125   1.398       .  A
C2124      C2129   1.508       .  S
C2125      C2126   1.404       .  A
C2125      H2130   1.085       .  S
C2126      C2127   1.416       .  A
C2127      C2128   1.402       .  A
C2127      C2131   1.506       .  S
C2128      H2132   1.084       .  S
C2129      H2139   1.111       .  S
C2129      H2140   1.110       .  S
C2129      H2141   1.109       .  S
C2131      H2142   1.111       .  S
C2131      H2143   1.111       .  S
C2131      H2144   1.109       .  S
C2145      C2146   1.404       .  A
C2145      C2150   1.408       .  A
C2145      H2155   1.084       .  S
C2146      C2151   1.489       .  S
C2146      C2147   1.413       .  A
C2147      C2148   1.400       .  A
C2147      C2152   1.508       .  S
C2148      C2149   1.406       .  A
C2148      H2153   1.084       .  S
C2149      C2150   1.419       .  A
C2150      C2154   1.507       .  S
C2151      C2156   1.417       .  A
C2151      C2160   1.403       .  A
C2152      H2168   1.108       .  S
C2152      H2169   1.110       .  S
C2152      H2170   1.111       .  S
C2154      H2165   1.110       .  S
C2154      H2166   1.111       .  S
C2154      H2167   1.110       .  S
C2156      C2157   1.406       .  A
C2156      C2161   1.508       .  S
C2157      C2158   1.401       .  A
C2157      H2162   1.084       .  S
C2158      C2159   1.414       .  A
C2159      C2160   1.404       .  A
C2159      C2163   1.508       .  S
C2160      H2164   1.084       .  S
C2161      H2171   1.111       .  S
C2161      H2172   1.109       .  S
C2161      H2173   1.110       .  S
C2163      H2174   1.111       .  S
C2163      H2175   1.110       .  S
C2163      H2176   1.110       .  S
C2177      C2178   1.397       .  A
C2177      C2182   1.402       .  A
C2177      H2187   1.085       .  S
C2178      C2183   1.490       .  S
C2178      C2179   1.412   1_554  A
C2179      C2180   1.413       .  A
C2179      C2184   1.505       .  S
C2180      C2181   1.408       .  A
C2180      H2185   1.084       .  S
C2181      C2182   1.425   1_556  A
C2182      C2186   1.510       .  S
C2183      C2188   1.413       .  A
C2183      C2192   1.402       .  A
C2184      H2200   1.110       .  S
C2184      H2201   1.108       .  S
C2184      H2202   1.111       .  S
C2186      H2197   1.109       .  S
C2186      H2198   1.111       .  S
C2186      H2199   1.110   1_554  S
C2188      C2189   1.408       .  A
C2188      C2193   1.507       .  S
C2189      C2190   1.405       .  A
C2189      H2194   1.084       .  S
C2190      C2191   1.420       .  A
C2191      C2192   1.408       .  A
C2191      C2195   1.508       .  S
C2192      H2196   1.084   1_554  S
C2193      H2203   1.111       .  S
C2193      H2204   1.110       .  S
C2193      H2205   1.108       .  S
C2195      H2206   1.109       .  S
C2195      H2207   1.110       .  S
C2195      H2208   1.111   1_554  S
C2209      C2210   1.398       .  A
C2209      C2214   1.402       .  A
C2209      H2219   1.084       .  S
C2210      C2215   1.490       .  S
C2210      C2211   1.414       .  A
C2211      C2212   1.412       .  A
C2211      C2216   1.505       .  S
C2212      C2213   1.406       .  A
C2212      H2217   1.084       .  S
C2213      C2214   1.421       .  A
C2214      C2218   1.509       .  S
C2215      C2220   1.408       .  A
C2215      C2224   1.406       .  A
C2216      H2232   1.110       .  S
C2216      H2233   1.110       .  S
C2216      H2234   1.111       .  S
C2218      H2229   1.111       .  S
C2218      H2230   1.108       .  S
C2218      H2231   1.110       .  S
C2220      C2221   1.402       .  A
C2220      C2225   1.508       .  S
C2221      C2222   1.411       .  A
C2221      H2226   1.084       .  S
C2222      C2223   1.420       .  A
C2223      C2224   1.414       .  A
C2223      C2227   1.506       .  S
C2224      H2228   1.084       .  S
C2225      H2235   1.111       .  S
C2225      H2236   1.109       .  S
C2225      H2237   1.111       .  S
C2227      H2238   1.110       .  S
C2227      H2239   1.105       .  S
C2227      H2240   1.111       .  S
C2241      C2242   1.401       .  A
C2241      C2246   1.407       .  A
C2241      H2251   1.084       .  S
C2242      C2247   1.483       .  S
C2242      C2243   1.411       .  A
C2243      C2244   1.402       .  A
C2243      C2248   1.507       .  S
C2244      C2245   1.403       .  A
C2244      H2249   1.083       .  S
C2245      C2246   1.416       .  A
C2246      C2250   1.507       .  S
C2247      C2252   1.413       .  A
C2247      C2256   1.400       .  A
C2248      H2264   1.110       .  S
C2248      H2265   1.110       .  S
C2248      H2266   1.111       .  S
C2250      H2261   1.110       .  S
C2250      H2262   1.111       .  S
C2250      H2263   1.110       .  S
C2252      C2253   1.405       .  A
C2252      C2257   1.506       .  S
C2253      C2254   1.402       .  A
C2253      H2258   1.084       .  S
C2254      C2255   1.417       .  A
C2255      C2256   1.406       .  A
C2255      C2259   1.507       .  S
C2256      H2260   1.084       .  S
C2257      H2267   1.111       .  S
C2257      H2268   1.110       .  S
C2257      H2269   1.110       .  S
C2259      H2270   1.110       .  S
C2259      H2271   1.109       .  S
C2259      H2272   1.111       .  S
C2273      C2274   1.399       .  A
C2273      C2278   1.408       .  A
C2273      H2283   1.084       .  S
C2274      C2279   1.492       .  S
C2274      C2275   1.412       .  A
C2275      C2276   1.409       .  A
C2275      C2280   1.506       .  S
C2276      C2277   1.409       .  A
C2276      H2281   1.084       .  S
C2277      C2278   1.424       .  A
C2278      C2282   1.505       .  S
C2279      C2284   1.412       .  A
C2279      C2288   1.398       .  A
C2280      H2296   1.110       .  S
C2280      H2297   1.110       .  S
C2280      H2298   1.111       .  S
C2282      H2293   1.107       .  S
C2282      H2294   1.111       .  S
C2282      H2295   1.110       .  S
C2284      C2285   1.412   1_545  A
C2284      C2289   1.505       .  S
C2285      C2286   1.411       .  A
C2285      H2290   1.084       .  S
C2286      C2287   1.425   1_565  A
C2287      C2288   1.405       .  A
C2287      C2291   1.509   1_545  S
C2288      H2292   1.085       .  S
C2289      H2299   1.111       .  S
C2289      H2300   1.110       .  S
C2289      H2301   1.110       .  S
C2291      H2302   1.109       .  S
C2291      H2303   1.109       .  S
C2291      H2304   1.111   1_565  S
C2305      C2306   1.399       .  A
C2305      C2310   1.405       .  A
C2305      H2315   1.084       .  S
C2306      C2311   1.474       .  S
C2306      C2307   1.406       .  A
C2307      C2308   1.398       .  A
C2307      C2312   1.508       .  S
C2308      C2309   1.410       .  A
C2308      H2313   1.083       .  S
C2309      C2310   1.422       .  A
C2310      C2314   1.507       .  S
C2311      C2316   1.408       .  A
C2311      C2320   1.401       .  A
C2312      H2328   1.110       .  S
C2312      H2329   1.110       .  S
C2312      H2330   1.111       .  S
C2314      H2325   1.111       .  S
C2314      H2326   1.109       .  S
C2314      H2327   1.110       .  S
C2316      C2317   1.399       .  A
C2316      C2321   1.507       .  S
C2317      C2318   1.404       .  A
C2317      H2322   1.084       .  S
C2318      C2319   1.415       .  A
C2319      C2320   1.404       .  A
C2319      C2323   1.507       .  S
C2320      H2324   1.084       .  S
C2321      H2331   1.111       .  S
C2321      H2332   1.110       .  S
C2321      H2333   1.110       .  S
C2323      H2334   1.109       .  S
C2323      H2335   1.110       .  S
C2323      H2336   1.111       .  S
C2337      C2338   1.403       .  A
C2337      C2342   1.408       .  A
C2337      H2347   1.084       .  S
C2338      C2343   1.489       .  S
C2338      C2339   1.415       .  A
C2339      C2340   1.406       .  A
C2339      C2344   1.507       .  S
C2340      C2341   1.401       .  A
C2340      H2345   1.084       .  S
C2341      C2342   1.414       .  A
C2342      C2346   1.506       .  S
C2343      C2348   1.409       .  A
C2343      C2352   1.402       .  A
C2344      H2360   1.109       .  S
C2344      H2361   1.111       .  S
C2344      H2362   1.111       .  S
C2346      H2357   1.109       .  S
C2346      H2358   1.111       .  S
C2346      H2359   1.110       .  S
C2348      C2349   1.405       .  A
C2348      C2353   1.507       .  S
C2349      C2350   1.411       .  A
C2349      H2354   1.084       .  S
C2350      C2351   1.422       .  A
C2351      C2352   1.410       .  A
C2351      C2355   1.507       .  S
C2352      H2356   1.084       .  S
C2353      H2363   1.111       .  S
C2353      H2364   1.110       .  S
C2353      H2365   1.110       .  S
C2355      H2366   1.110       .  S
C2355      H2367   1.110       .  S
C2355      H2368   1.111       .  S
C2369      C2370   1.399       .  A
C2369      C2374   1.403       .  A
C2369      H2379   1.085       .  S
C2370      C2375   1.491       .  S
C2370      C2371   1.411       .  A
C2371      C2372   1.412       .  A
C2371      C2376   1.505       .  S
C2372      C2373   1.410       .  A
C2372      H2377   1.084       .  S
C2373      C2374   1.423       .  A
C2374      C2378   1.509       .  S
C2375      C2380   1.411       .  A
C2375      C2384   1.403       .  A
C2376      H2392   1.110       .  S
C2376      H2393   1.110       .  S
C2376      H2394   1.111       .  S
C2378      H2389   1.111       .  S
C2378      H2390   1.109       .  S
C2378      H2391   1.110       .  S
C2380      C2381   1.404       .  A
C2380      C2385   1.507       .  S
C2381      C2382   1.409       .  A
C2381      H2386   1.084       .  S
C2382      C2383   1.420       .  A
C2383      C2384   1.411       .  A
C2383      C2387   1.505       .  S
C2384      H2388   1.084       .  S
C2385      H2395   1.111       .  S
C2385      H2396   1.109       .  S
C2385      H2397   1.110       .  S
C2387      H2398   1.111       .  S
C2387      H2399   1.110       .  S
C2387      H2400   1.109       .  S
C2401      C2402   1.402       .  A
C2401      C2406   1.405       .  A
C2401      H2411   1.084       .  S
C2402      C2407   1.481       .  S
C2402      C2403   1.412       .  A
C2403      C2404   1.400       .  A
C2403      C2408   1.508       .  S
C2404      C2405   1.403       .  A
C2404      H2409   1.084       .  S
C2405      C2406   1.414       .  A
C2406      C2410   1.505       .  S
C2407      C2412   1.410       .  A
C2407      C2416   1.403       .  A
C2408      H2424   1.109       .  S
C2408      H2425   1.110       .  S
C2408      H2426   1.111       .  S
C2410      H2421   1.111       .  S
C2410      H2422   1.110       .  S
C2410      H2423   1.109       .  S
C2412      C2413   1.404       .  A
C2412      C2417   1.506       .  S
C2413      C2414   1.405       .  A
C2413      H2418   1.084       .  S
C2414      C2415   1.413       .  A
C2415      C2416   1.402       .  A
C2415      C2419   1.508       .  S
C2416      H2420   1.084       .  S
C2417      H2427   1.111       .  S
C2417      H2428   1.109       .  S
C2417      H2429   1.110       .  S
C2419      H2430   1.111       .  S
C2419      H2431   1.110       .  S
C2419      H2432   1.108       .  S
C2433      C2434   1.401       .  A
C2433      C2438   1.406       .  A
C2433      H2443   1.084       .  S
C2434      C2439   1.487       .  S
C2434      C2435   1.413       .  A
C2435      C2436   1.408       .  A
C2435      C2440   1.507       .  S
C2436      C2437   1.406       .  A
C2436      H2441   1.084       .  S
C2437      C2438   1.417       .  A
C2438      C2442   1.508       .  S
C2439      C2444   1.411       .  A
C2439      C2448   1.402       .  A
C2440      H2456   1.110       .  S
C2440      H2457   1.109       .  S
C2440      H2458   1.111       .  S
C2442      H2453   1.111       .  S
C2442      H2454   1.108       .  S
C2442      H2455   1.110       .  S
C2444      C2445   1.408       .  A
C2444      C2449   1.506       .  S
C2445      C2446   1.407       .  A
C2445      H2450   1.084   1_556  S
C2446      C2447   1.417       .  A
C2447      C2448   1.405       .  A
C2447      C2451   1.508       .  S
C2448      H2452   1.085       .  S
C2449      H2459   1.111       .  S
C2449      H2460   1.110       .  S
C2449      H2461   1.109       .  S
C2451      H2462   1.110       .  S
C2451      H2463   1.107       .  S
C2451      H2464   1.111       .  S
C2465      C2466   1.402       .  A
C2465      C2470   1.413       .  A
C2465      H2475   1.084       .  S
C2466      C2471   1.492       .  S
C2466      C2467   1.411       .  A
C2467      C2468   1.406       .  A
C2467      C2472   1.508       .  S
C2468      C2469   1.410       .  A
C2468      H2473   1.084       .  S
C2469      C2470   1.423       .  A
C2470      C2474   1.505       .  S
C2471      C2476   1.411       .  A
C2471      C2480   1.402       .  A
C2472      H2488   1.110       .  S
C2472      H2489   1.109       .  S
C2472      H2490   1.111       .  S
C2474      H2485   1.111       .  S
C2474      H2486   1.111   1_565  S
C2474      H2487   1.107       .  S
C2476      C2477   1.408       .  A
C2476      C2481   1.506       .  S
C2477      C2478   1.409       .  A
C2477      H2482   1.084       .  S
C2478      C2479   1.419       .  A
C2479      C2480   1.409       .  A
C2479      C2483   1.506       .  S
C2480      H2484   1.084       .  S
C2481      H2491   1.111       .  S
C2481      H2492   1.110       .  S
C2481      H2493   1.109       .  S
C2483      H2494   1.109       .  S
C2483      H2495   1.110       .  S
C2483      H2496   1.111       .  S
C2497      C2498   1.399   1_545  A
C2497      C2502   1.402       .  A
C2497      H2507   1.084       .  S
C2498      C2503   1.489       .  S
C2498      C2499   1.417       .  A
C2499      C2500   1.412   1_565  A
C2499      C2504   1.507       .  S
C2500      C2501   1.404       .  A
C2500      H2505   1.084   1_545  S
C2501      C2502   1.417       .  A
C2502      C2506   1.508       .  S
C2503      C2508   1.416       .  A
C2503      C2512   1.400       .  A
C2504      H2520   1.110       .  S
C2504      H2521   1.106       .  S
C2504      H2522   1.111       .  S
C2506      H2517   1.107       .  S
C2506      H2518   1.111       .  S
C2506      H2519   1.111       .  S
C2508      C2509   1.411       .  A
C2508      C2513   1.507       .  S
C2509      C2510   1.404       .  A
C2509      H2514   1.084       .  S
C2510      C2511   1.418       .  A
C2511      C2512   1.403       .  A
C2511      C2515   1.509       .  S
C2512      H2516   1.084       .  S
C2513      H2523   1.111       .  S
C2513      H2524   1.110       .  S
C2513      H2525   1.107       .  S
C2515      H2526   1.111       .  S
C2515      H2527   1.111       .  S
C2515      H2528   1.107       .  S
C2529      C2530   1.402       .  A
C2529      C2534   1.405       .  A
C2529      H2539   1.084       .  S
C2530      C2535   1.484       .  S
C2530      C2531   1.411       .  A
C2531      C2532   1.404       .  A
C2531      C2536   1.506       .  S
C2532      C2533   1.404       .  A
C2532      H2537   1.084       .  S
C2533      C2534   1.417       .  A
C2534      C2538   1.509       .  S
C2535      C2540   1.412       .  A
C2535      C2544   1.403       .  A
C2536      H2552   1.110       .  S
C2536      H2553   1.110       .  S
C2536      H2554   1.111       .  S
C2538      H2549   1.111       .  S
C2538      H2550   1.111       .  S
C2538      H2551   1.109       .  S
C2540      C2541   1.400       .  A
C2540      C2545   1.508       .  S
C2541      C2542   1.403       .  A
C2541      H2546   1.084       .  S
C2542      C2543   1.417       .  A
C2543      C2544   1.408       .  A
C2543      C2547   1.507       .  S
C2544      H2548   1.084       .  S
C2545      H2555   1.111       .  S
C2545      H2556   1.109       .  S
C2545      H2557   1.110       .  S
C2547      H2558   1.111       .  S
C2547      H2559   1.110       .  S
C2547      H2560   1.110       .  S
C2561      C2562   1.402       .  A
C2561      C2566   1.408       .  A
C2561      H2571   1.084       .  S
C2562      C2567   1.489       .  S
C2562      C2563   1.410       .  A
C2563      C2564   1.406       .  A
C2563      C2568   1.506       .  S
C2564      C2565   1.409       .  A
C2564      H2569   1.084       .  S
C2565      C2566   1.419       .  A
C2566      C2570   1.506       .  S
C2567      C2572   1.408       .  A
C2567      C2576   1.401       .  A
C2568      H2584   1.110       .  S
C2568      H2585   1.110       .  S
C2568      H2586   1.111       .  S
C2570      H2581   1.110       .  S
C2570      H2582   1.111       .  S
C2570      H2583   1.109       .  S
C2572      C2573   1.403       .  A
C2572      C2577   1.508       .  S
C2573      C2574   1.414       .  A
C2573      H2578   1.083       .  S
C2574      C2575   1.425       .  A
C2575      C2576   1.413       .  A
C2575      C2579   1.504       .  S
C2576      H2580   1.084       .  S
C2577      H2587   1.111       .  S
C2577      H2588   1.110       .  S
C2577      H2589   1.110       .  S
C2579      H2590   1.110       .  S
C2579      H2591   1.108       .  S
C2579      H2592   1.111       .  S
