geometry optimzed in LAMMPS
_audit_creation_date              2020-11-30 
_audit_creation_method            'lammps2cif' 
_symmetry_space_group_name_H-M    'P1' 
_symmetry_Int_Tables_number       1 
_symmetry_cell_setting            triclinic 
loop_ 
_symmetry_equiv_pos_as_xyz 
  x,y,z 
_cell_length_a                    30.93130459 
_cell_length_b                    30.842577673119596 
_cell_length_c                    54.62894064135491 
_cell_angle_alpha                 89.90294575228675 
_cell_angle_beta                  89.95813634777683 
_cell_angle_gamma                 120.06350476006968 
loop_ 
_atom_site_label 
_atom_site_type_symbol 
_atom_site_fract_x 
_atom_site_fract_y 
_atom_site_fract_z 
_atom_site_charge 
Zr1        Zr  0.58574692  0.75311700  0.65168847     2.17500
O2          O  0.53980489  0.69218400  0.68372837    -0.51600
O3          O  0.52056516  0.77369556  0.64252493    -0.74800
O4          O  0.59133307  0.79245428  0.69148374    -0.81600
O5          O  0.54300002  0.64317602  0.60900644    -0.83300
O6          O  0.66610652  0.86450454  0.69164261    -0.78900
O7          O  0.51939837  0.66905441  0.64271935    -0.90600
O8          O  0.54272098  0.82196681  0.60831884    -0.76500
O9          O  0.62702065  0.83856026  0.63925938    -0.86000
O10         O  0.58157681  0.75231799  0.60807657    -0.85700
O11         O  0.66964289  0.78660884  0.66665089    -0.72500
O12         O  0.62688220  0.70885129  0.63755354    -0.84600
Zr13       Zr  0.74769300  0.82963872  0.59524368     2.26400
Zr14       Zr  0.71079370  0.87210010  0.65351190     2.06300
Zr15       Zr  0.62289621  0.70917268  0.59384155     2.10000
Zr16       Zr  0.62383965  0.83757108  0.59562075     1.78800
O17         O  0.62021017  0.62895471  0.59231108    -0.93400
O18         O  0.63456843  0.92049313  0.60225876    -0.41200
O19         O  0.66420908  0.79420157  0.57998587    -0.77900
O20         O  0.70771858  0.87435747  0.60973963    -0.96600
O21         O  0.75284842  0.83015834  0.63880848    -0.89900
O22         O  0.70671335  0.74433972  0.60792567    -0.92700
C23         C  0.51242551  0.79823691  0.62580499     1.01100
C24         C  0.51224370  0.63625695  0.62644595     1.14000
C25         C  0.62495117  0.83240643  0.70209341     1.04800
O26         O  0.70899425  0.95000713  0.65554736    -0.94900
O27         O  0.79215427  0.93663634  0.63888954    -0.90600
O28         O  0.81555812  0.91286331  0.60431429    -0.83700
C29         C  0.82299857  0.94441520  0.62133961     1.11400
O30         O  0.67369157  0.68441259  0.68434103    -0.96800
Zr31       Zr  0.71176234  0.74508407  0.65117282     1.88900
O32         O  0.81808187  0.81885850  0.60459321    -0.73500
O33         O  0.76843617  0.89662695  0.68793627    -0.52700
O34         O  0.75910742  0.77690212  0.68896289    -0.97400
O35         O  0.70980556  0.66625804  0.64339555    -0.54600
O36         O  0.79708580  0.77059795  0.63882472    -0.74000
C37         C  0.82771269  0.79628587  0.62158615     0.98400
O38         O  0.77934398  0.88266686  0.55894294    -0.62800
O39         O  0.56707559  0.68999522  0.55906814    -0.57600
O40         O  0.74715820  0.78052032  0.56021414    -0.94300
O41         O  0.67182017  0.70906558  0.55864414    -0.92700
O42         O  0.57039889  0.80444751  0.55977040    -0.93100
O43         O  0.66010347  0.89210229  0.56017257    -0.91900
C44         C  0.71607456  0.73841013  0.55029461     1.17200
H45         H  0.54737719  0.73553827  0.60248485     0.33100
H46         H  0.72557459  0.90861187  0.60397030     0.44000
H47         H  0.72253072  0.72688173  0.60112085     0.37500
H48         H  0.66983693  0.78422625  0.68427714     0.34000
H49         H  0.60956300  0.92185207  0.59147541     0.25800
H50         H  0.75315837  0.86769304  0.69930238     0.31700
H51         H  0.79063775  0.80704475  0.68397976     0.37600
H52         H  0.55490705  0.82563727  0.55791745     0.32100
H53         H  0.58487868  0.71908213  0.54794298     0.31000
H54         H  0.59535480  0.60973626  0.57946707     0.32700
H55         H  0.73611206  0.67406708  0.63101442     0.31600
H56         H  0.67481809  0.87584742  0.55027155     0.35600
H57         H  0.75588611  0.86327953  0.54563729     0.28300
H58         H  0.51569439  0.70162422  0.69009158     0.32600
H59         H  0.70036198  0.67857233  0.69064873     0.35400
H60         H  0.56800535  0.66217040  0.55054903     0.28000
H61         H  0.77253410  0.91031500  0.56203442     0.40900
H62         H  0.73762837  0.97205678  0.66614654     0.31000
H63         H  0.62191990  0.91930058  0.61904660     0.38600
H64         H  0.67805136  0.64547417  0.63455685     0.30400
H65         H  0.79825121  0.89652458  0.68140350     0.30500
H66         H  0.56406771  0.69952536  0.69711484     0.30800
Zr67       Zr  0.79281431  0.55313901  0.35876785     2.17500
O68         O  0.73469123  0.49764876  0.32778961    -0.51600
O69         O  0.81586098  0.48946439  0.36611554    -0.74800
O70         O  0.83067890  0.56534853  0.31793984    -0.81600
O71         O  0.68487076  0.50756640  0.40514897    -0.83300
O72         O  0.90110419  0.64130060  0.31536869    -0.78900
O73         O  0.70815332  0.48924422  0.36897769    -0.90600
O74         O  0.86889656  0.51403958  0.39839131    -0.76500
O75         O  0.87937577  0.59815887  0.36823792    -0.86000
O76         O  0.79809662  0.54890060  0.40223857    -0.85700
O77         O  0.82049938  0.63627082  0.34378655    -0.72500
O78         O  0.74649709  0.58961148  0.37569496    -0.84600
Zr79       Zr  0.86918367  0.71553463  0.41467891     2.26400
Zr80       Zr  0.90730597  0.68172050  0.35437639     2.06300
Zr81       Zr  0.75390443  0.58700039  0.41932838     2.10000
Zr82       Zr  0.88465727  0.59525898  0.41162789     1.78800
O83         O  0.67241078  0.57727146  0.42836021    -0.93400
O84         O  0.96686525  0.60953823  0.39994679    -0.41200
O85         O  0.84038461  0.63250138  0.42990925    -0.77900
O86         O  0.91543464  0.67908261  0.39785743    -0.96600
O87         O  0.86303049  0.71933037  0.37139919    -0.89900
O88         O  0.78253068  0.67007726  0.40501012    -0.92700
C89         C  0.84311492  0.48272048  0.38161546     1.01100
C90         C  0.67660151  0.47942335  0.38637342     1.14000
C91         C  0.86855919  0.59935214  0.30602317     1.04800
O92         O  0.98557524  0.68195212  0.34905007    -0.94900
O93         O  0.97184838  0.76338885  0.36786129    -0.90600
O94         O  0.94956063  0.78579442  0.40316585    -0.83700
C95         C  0.98009661  0.79405027  0.38550045     1.11400
O96         O  0.72167440  0.63812206  0.32658563    -0.96800
Zr97       Zr  0.77662944  0.67353473  0.36184125     1.88900
O98         O  0.85029648  0.78108497  0.40563518    -0.73500
O99         O  0.92433542  0.74268821  0.32199711    -0.52700
O100        O  0.80301312  0.72945144  0.32652002    -0.97400
O101        O  0.69267230  0.65586614  0.37226189    -0.54600
O102        O  0.79324520  0.75517993  0.37509687    -0.74000
C103        C  0.82202301  0.78772726  0.39075091     0.98400
O104        O  0.92576926  0.75034129  0.44945483    -0.62800
O105        O  0.74786048  0.53330985  0.45346549    -0.57600
O106        O  0.82643694  0.71569853  0.45205225    -0.94300
O107        O  0.75823210  0.63793217  0.45466696    -0.92700
O108        O  0.86282595  0.54353229  0.44831911    -0.93100
O109        O  0.94530429  0.63431385  0.44444963    -0.91900
C110        C  0.78640444  0.68272406  0.46282537     1.17200
H111        H  0.78337510  0.51466769  0.40778926     0.33100
H112        H  0.95011916  0.69840022  0.40260005     0.44000
H113        H  0.76452900  0.68443152  0.41278979     0.37500
H114        H  0.81592140  0.63656080  0.32631325     0.34000
H115        H  0.97135248  0.58500538  0.40971673     0.25800
H116        H  0.95470810  0.74698992  0.31371031     0.31700
H117        H  0.83716527  0.75662050  0.33054025     0.37600
H118        H  0.84709590  0.55717957  0.45930981     0.32100
H119        H  0.72508251  0.53609081  0.46527604     0.31000
H120        H  0.66310987  0.56050471  0.44453994     0.32700
H121        H  0.69737613  0.68052000  0.38506827     0.31600
H122        H  0.93293861  0.65310943  0.45404591     0.35600
H123        H  0.91061421  0.72480649  0.46255972     0.28300
H124        H  0.75046116  0.47947582  0.32059620     0.32600
H125        H  0.70650782  0.65945240  0.32406214     0.35400
H126        H  0.72841556  0.49874169  0.44705970     0.28000
H127        H  0.95580988  0.74877227  0.44461660     0.40900
H128        H  0.00247863  0.70537555  0.33527784     0.31000
H129        H  0.96289928  0.59714351  0.38292461     0.38600
H130        H  0.67731645  0.62331193  0.38096992     0.30400
H131        H  0.89717447  0.72504118  0.30993125     0.30500
H132        H  0.73496502  0.51979580  0.31457066     0.30800
Zr133      Zr  0.41710921  0.17006857  0.35716966     2.17500
O134        O  0.46530683  0.15744006  0.32547020    -0.51600
O135        O  0.48227506  0.25657160  0.36420209    -0.74800
O136        O  0.40801909  0.19986646  0.31686206    -0.81600
O137        O  0.46383633  0.11211182  0.40535640    -0.83300
O138        O  0.33200500  0.19395033  0.31423135    -0.78900
O139        O  0.48386395  0.15499494  0.36936064    -0.90600
O140        O  0.45878600  0.28218636  0.39792618    -0.76500
O141        O  0.37308554  0.21255442  0.36724246    -0.86000
O142        O  0.41992673  0.17667075  0.40070805    -0.85700
O143        O  0.33409478  0.11720348  0.34178859    -0.72500
O144        O  0.37849824  0.08590150  0.37304269    -0.84600
Zr145      Zr  0.25361725  0.08396623  0.41229770     2.26400
Zr146      Zr  0.28947986  0.15932319  0.35300273     2.06300
Zr147      Zr  0.37996815  0.09314694  0.41678126     2.10000
Zr148      Zr  0.37584430  0.21869092  0.41067998     1.78800
O149        O  0.38536302  0.01715523  0.41898531    -0.93400
O150        O  0.36845668  0.29166832  0.40047446    -0.41200
O151        O  0.33633884  0.13590218  0.42799222    -0.77900
O152        O  0.29195152  0.16804299  0.39663412    -0.96600
O153        O  0.25049198  0.07633684  0.36897267    -0.89900
O154        O  0.29726383  0.04124811  0.40178465    -0.92700
C155        C  0.48994442  0.28917192  0.38074927     1.01100
C156        C  0.49368939  0.13444426  0.38734718     1.14000
C157        C  0.37415116  0.20377077  0.30494142     1.04800
O158        O  0.29125564  0.23867829  0.34816677    -0.94900
O159        O  0.20765010  0.14330123  0.36666509    -0.90600
O160        O  0.18400243  0.09531584  0.40115664    -0.83700
C161        C  0.17657875  0.11948303  0.38409432     1.11400
O162        O  0.33641378  0.01350392  0.32663143    -0.96800
Zr163      Zr  0.29479118  0.03466624  0.35846234     1.88900
O164        O  0.18620798  0.00239137  0.40120518    -0.73500
O165        O  0.22845399  0.11659074  0.32068691    -0.52700
O166        O  0.24907169  0.01840082  0.32010535    -0.97400
O167        O  0.29761496  0.95878899  0.36783577    -0.54600
O168        O  0.20897089  0.97382293  0.36825301    -0.74000
C169        C  0.17724980  0.96989209  0.38447650     0.98400
O170        O  0.21833099  0.10313700  0.44781962    -0.62800
O171        O  0.42934166  0.12917368  0.45363717    -0.57600
O172        O  0.25093242  0.03615201  0.44841647    -0.94300
O173        O  0.32785729  0.04446493  0.45157266    -0.92700
O174        O  0.42326512  0.24055170  0.44868353    -0.93100
O175        O  0.33825975  0.24299195  0.44311134    -0.91900
C176        C  0.28270865  0.02747236  0.45925243     1.17200
H177        H  0.45398350  0.19540099  0.40649090     0.33100
H178        H  0.27326402  0.18373683  0.40168041     0.44000
H179        H  0.28190487  0.00833834  0.40897752     0.37500
H180        H  0.33436198  0.11336318  0.32433761     0.34000
H181        H  0.39598901  0.31971903  0.40950343     0.25800
H182        H  0.22073522  0.14199011  0.31428955     0.31700
H183        H  0.23065643  0.98149227  0.31842191     0.37600
H184        H  0.45706143  0.24754106  0.44394155     0.32100
H185        H  0.44223391  0.10650866  0.45788066     0.31000
H186        H  0.40303802  0.02009179  0.43453828     0.32700
H187        H  0.27011624  0.93986606  0.37962937     0.31600
H188        H  0.31063074  0.21091797  0.44944108     0.35600
H189        H  0.24438080  0.11409005  0.46061123     0.28300
H190        H  0.48728654  0.19094169  0.31822534     0.32600
H191        H  0.31094899  0.98029850  0.32034451     0.35400
H192        H  0.45914892  0.16045193  0.44809279     0.28000
H193        H  0.21809201  0.13416389  0.44339824     0.40900
H194        H  0.26403601  0.23140456  0.33645702     0.31000
H195        H  0.37852425  0.29880711  0.38306330     0.38600
H196        H  0.32844682  0.97053701  0.37758608     0.30400
H197        H  0.24699608  0.11137650  0.30732112     0.30500
H198        H  0.44106354  0.13794599  0.31244408     0.30800
Zr199      Zr  0.20779041  0.75374696  0.64834211     2.17500
O200        O  0.27314636  0.77182480  0.67809929    -0.51600
O201        O  0.18134849  0.66567821  0.64289899    -0.74800
O202        O  0.17291880  0.72679244  0.68947292    -0.81600
O203        O  0.31364862  0.81166916  0.60312872    -0.83300
O204        O  0.10383348  0.73447815  0.69087340    -0.78900
O205        O  0.28714936  0.76250301  0.63712024    -0.90600
O206        O  0.13231490  0.64002202  0.60907177    -0.76500
O207        O  0.12145832  0.71207478  0.63808281    -0.86000
O208        O  0.20384180  0.74540727  0.60482410    -0.85700
O209        O  0.18018655  0.80908883  0.66310133    -0.72500
O210        O  0.25448576  0.83727648  0.63182746    -0.84600
Zr211      Zr  0.13266222  0.84141807  0.59237336     2.26400
Zr212      Zr  0.09363026  0.76717371  0.65214975     2.06300
Zr213      Zr  0.24863363  0.82809121  0.58823894     2.10000
Zr214      Zr  0.11789024  0.70564567  0.59456597     1.78800
O215        O  0.33303087  0.89616018  0.58001461    -0.93400
O216        O  0.03493804  0.63448883  0.60242699    -0.41200
O217        O  0.16236732  0.78804443  0.57700997    -0.77900
O218        O  0.08668081  0.75780914  0.60858530    -0.96600
O219        O  0.13780292  0.85018386  0.63569666    -0.89900
O220        O  0.21918031  0.88200829  0.60250086    -0.92700
C221        C  0.15562737  0.63289780  0.62659242     1.01100
C222        C  0.31962802  0.78681067  0.62049399     1.14000
C223        C  0.13536445  0.72433226  0.70087409     1.04800
O224        O  0.01714629  0.68738658  0.65818236    -0.94900
O225        O  0.02571407  0.77907219  0.63893299    -0.90600
O226        O  0.04928291  0.82534637  0.60388143    -0.83700
C227        C  0.01765071  0.80118674  0.62110991     1.11400
O228        O  0.28599197  0.91661893  0.67805456    -0.96800
Zr229      Zr  0.22412992  0.89096420  0.64550245     1.88900
O230        O  0.14842602  0.92476678  0.60225154    -0.73500
O231        O  0.07306188  0.80811203  0.68450967    -0.52700
O232        O  0.19668105  0.91220408  0.68314212    -0.97400
O233        O  0.30585140  0.96073576  0.63409684    -0.54600
O234        O  0.20427839  0.95476345  0.63346626    -0.74000
C235        C  0.17566433  0.95881992  0.61777563     0.98400
O236        O  0.07925651  0.82363364  0.55656768    -0.62800
O237        O  0.25055734  0.77965629  0.55351362    -0.57600
O238        O  0.18125922  0.88789185  0.55642945    -0.94300
O239        O  0.25083578  0.88082194  0.55406719    -0.92700
O240        O  0.14457971  0.68091919  0.55776562    -0.93100
O241        O  0.05925738  0.68625696  0.56098593    -0.91900
C242        C  0.22276699  0.89765489  0.54617540     1.17200
H243        H  0.21842657  0.72579671  0.59934146     0.33100
H244        H  0.05213409  0.74198412  0.60359041     0.44000
H245        H  0.23753413  0.91488603  0.59516220     0.37500
H246        H  0.18469810  0.81371261  0.68057092     0.34000
H247        H  0.03348418  0.60678691  0.59264044     0.25800
H248        H  0.04424957  0.78045664  0.69314330     0.31700
H249        H  0.16537334  0.91162900  0.67869253     0.37600
H250        H  0.16890758  0.67117334  0.56345686     0.32100
H251        H  0.23019927  0.78388268  0.54077533     0.31000
H252        H  0.34471574  0.88451202  0.56595155     0.32700
H253        H  0.29900866  0.98473077  0.62530973     0.31600
H254        H  0.07462780  0.71669056  0.55058702     0.35600
H255        H  0.09566765  0.81495012  0.54343307     0.28300
H256        H  0.26250670  0.73985944  0.68680253     0.32600
H257        H  0.29482574  0.95132998  0.68225848     0.35400
H258        H  0.28523576  0.79877255  0.54726470     0.28000
H259        H  0.04872106  0.79142142  0.56035314     0.40900
H260        H  0.00237865  0.67762112  0.64163668     0.31000
H261        H  0.03604619  0.62489180  0.61961927     0.38600
H262        H  0.31829699  0.94706236  0.62127293     0.30400
H263        H  0.10101522  0.82003178  0.69629276     0.30500
H264        H  0.27043198  0.79416366  0.69021978     0.30800
Zr265      Zr  0.20789044  0.37683595  0.64936384     2.17500
O266        O  0.21258523  0.43745820  0.67946405    -0.51600
O267        O  0.29436251  0.43789011  0.64032460    -0.74800
O268        O  0.23503658  0.36569927  0.68990412    -0.81600
O269        O  0.14179070  0.41964574  0.60380626    -0.83300
O270        O  0.23259709  0.29111860  0.69202371    -0.78900
O271        O  0.18368706  0.43923031  0.63984809    -0.90600
O272        O  0.32143617  0.41489382  0.60698252    -0.76500
O273        O  0.25030393  0.33346326  0.63778948    -0.86000
O274        O  0.21300454  0.38016598  0.60582888    -0.85700
O275        O  0.15609252  0.29358441  0.66532075    -0.72500
O276        O  0.12314643  0.33794137  0.63510623    -0.84600
Zr277      Zr  0.11893924  0.21224040  0.59497950     2.26400
Zr278      Zr  0.19862403  0.24998815  0.65288688     2.06300
Zr279      Zr  0.12877640  0.33927523  0.59134976     2.10000
Zr280      Zr  0.25334593  0.33508308  0.59415607     1.78800
O281        O  0.05082960  0.34058259  0.58896457    -0.93400
O282        O  0.32465723  0.32264075  0.59942429    -0.41200
O283        O  0.16972119  0.29482859  0.57870515    -0.77900
O284        O  0.20383119  0.25128447  0.60904629    -0.96600
O285        O  0.11462060  0.21004025  0.63844940    -0.89900
O286        O  0.07728200  0.25623433  0.60646812    -0.92700
C287        C  0.32790694  0.44514322  0.62441587     1.01100
C288        C  0.16162540  0.44830056  0.62227173     1.14000
C289        C  0.24053971  0.33248811  0.70162015     1.04800
O290        O  0.28021900  0.25632838  0.65535085    -0.94900
O291        O  0.18299012  0.16834141  0.63937629    -0.90600
O292        O  0.13146331  0.14309556  0.60628392    -0.83700
C293        C  0.15741188  0.13646019  0.62263509     1.11400
O294        O  0.05530368  0.29317983  0.68415856    -0.96800
Zr295      Zr  0.07299764  0.25391777  0.64987372     1.88900
O296        O  0.03657280  0.14589536  0.60636651    -0.73500
O297        O  0.16200065  0.18669724  0.68491341    -0.52700
O298        O  0.05440519  0.20351342  0.68694251    -0.97400
O299        O  0.99961179  0.26174455  0.64203596    -0.54600
O300        O  0.00946002  0.16954610  0.63957124    -0.74000
C301        C  0.00430908  0.13774718  0.62314330     0.98400
O302        O  0.13344461  0.17286101  0.55960594    -0.62800
O303        O  0.16617128  0.39241767  0.55553600    -0.57600
O304        O  0.07371163  0.21482410  0.55878586    -0.94300
O305        O  0.08341628  0.29264390  0.55559596    -0.92700
O306        O  0.27064149  0.38867885  0.55840606    -0.93100
O307        O  0.27228277  0.30069722  0.55832157    -0.91900
C308        C  0.06657268  0.24779963  0.54788305     1.17200
H309        H  0.23131038  0.41438932  0.60009342     0.33100
H310        H  0.21900954  0.23225688  0.60354452     0.44000
H311        H  0.04418248  0.24109554  0.59950090     0.37500
H312        H  0.15231635  0.29320610  0.68286538     0.34000
H313        H  0.34036952  0.33981540  0.61494722     0.25800
H314        H  0.19026241  0.18362320  0.69133614     0.31700
H315        H  0.06056937  0.17596246  0.68249565     0.37600
H316        H  0.30753284  0.40891514  0.55750624     0.32100
H317        H  0.14129201  0.40173628  0.55024729     0.31000
H318        H  0.05442753  0.36085830  0.57422661     0.32700
H319        H  0.98172379  0.23827127  0.62847901     0.31600
H320        H  0.24088503  0.26911253  0.55489916     0.35600
H321        H  0.14302374  0.19756197  0.54614800     0.28300
H322        H  0.24718015  0.45428704  0.68585347     0.32600
H323        H  0.02137551  0.26818229  0.68986063     0.35400
H324        H  0.19437649  0.42392453  0.56192669     0.28000
H325        H  0.16474249  0.17277025  0.56328469     0.40900
H326        H  0.30390937  0.29218292  0.65860561     0.31000
H327        H  0.31006056  0.28659447  0.60324875     0.38600
H328        H  0.01306485  0.29544458  0.63468272     0.30400
H329        H  0.15314018  0.20251629  0.69826437     0.30500
H330        H  0.19121790  0.41751382  0.69334606     0.30800
Zr331      Zr  0.80055226  0.17910098  0.35895419     2.17500
O332        O  0.80562933  0.23595415  0.32649552    -0.51600
O333        O  0.71489909  0.15991174  0.36656704    -0.74800
O334        O  0.77118266  0.13726067  0.31906114    -0.81600
O335        O  0.87108668  0.29142981  0.40287288    -0.83300
O336        O  0.77375708  0.06511997  0.31834430    -0.78900
O337        O  0.82452928  0.26519975  0.36808632    -0.90600
O338        O  0.68889687  0.11268977  0.40105125    -0.76500
O339        O  0.75650504  0.09359223  0.37109594    -0.86000
O340        O  0.79536989  0.17946562  0.40262109    -0.85700
O341        O  0.85203244  0.14647003  0.34455695    -0.72500
O342        O  0.88479734  0.22429748  0.37441663    -0.84600
Zr343      Zr  0.88469101  0.10139366  0.41562201     2.26400
Zr344      Zr  0.80787356  0.06053634  0.35753810     2.06300
Zr345      Zr  0.87904170  0.22164182  0.41823228     2.10000
Zr346      Zr  0.75216029  0.09411091  0.41459880     1.78800
O347        O  0.95680749  0.30064712  0.42327415    -0.93400
O348        O  0.67863944  0.01237048  0.40755766    -0.41200
O349        O  0.83538315  0.13589075  0.43078086    -0.77900
O350        O  0.80012909  0.05740258  0.40114008    -0.96600
O351        O  0.89156074  0.10379044  0.37227020    -0.89900
O352        O  0.92876043  0.18759646  0.40421653    -0.92700
C353        C  0.68249708  0.13641694  0.38345830     1.01100
C354        C  0.84921051  0.29825779  0.38449537     1.14000
C355        C  0.76535053  0.09760923  0.30812108     1.04800
O356        O  0.72681446  0.98500353  0.35293143    -0.94900
O357        O  0.81811079  0.99262559  0.37307431    -0.90600
O358        O  0.86881571  0.01792842  0.40625530    -0.83700
C359        C  0.84175329  0.98498672  0.39031935     1.11400
O360        O  0.95428034  0.24915009  0.32735953    -0.96800
Zr361      Zr  0.93474682  0.18990534  0.36091785     1.88900
O362        O  0.96767646  0.11593761  0.40537904    -0.73500
O363        O  0.84963809  0.03680946  0.32704225    -0.52700
O364        O  0.95745956  0.16261460  0.32369099    -0.97400
O365        O  0.00710732  0.27115822  0.37053584    -0.54600
O366        O  0.99738407  0.16893236  0.37281871    -0.74000
C367        C  0.00132074  0.14133378  0.38921279     0.98400
O368        O  0.86313720  0.04743101  0.45166864    -0.62800
O369        O  0.83866637  0.23832315  0.45228925    -0.57600
O370        O  0.92842117  0.14456195  0.45232073    -0.94300
O371        O  0.92380665  0.21584219  0.45406550    -0.92700
O372        O  0.73322210  0.12832109  0.45052459    -0.93100
O373        O  0.72872740  0.03795993  0.44969391    -0.91900
C374        C  0.93765844  0.18564858  0.46257322     1.17200
H375        H  0.77787441  0.19635725  0.40797590     0.33100
H376        H  0.78337858  0.02321524  0.40691764     0.44000
H377        H  0.96152465  0.20476105  0.41147761     0.37500
H378        H  0.85582484  0.14911668  0.32700376     0.34000
H379        H  0.65095887  0.01411536  0.41572753     0.25800
H380        H  0.82357658  0.00348718  0.32119801     0.31700
H381        H  0.95172232  0.12877425  0.32760027     0.37600
H382        H  0.69629913  0.10972528  0.45166655     0.32100
H383        H  0.83017158  0.21063692  0.46399491     0.31000
H384        H  0.95298022  0.31423692  0.43901874     0.32700
H385        H  0.02530365  0.26461648  0.38358490     0.31600
H386        H  0.76075928  0.04720175  0.45785769     0.35600
H387        H  0.85156637  0.06292418  0.46396881     0.28300
H388        H  0.77135212  0.22136860  0.31986326     0.32600
H389        H  0.98950479  0.26087425  0.32294127     0.35400
H390        H  0.86590069  0.26828087  0.46037007     0.28000
H391        H  0.83220459  0.01613916  0.44728078     0.40900
H392        H  0.73302944  0.96352629  0.34170826     0.31000
H393        H  0.67156884  0.01191422  0.38985791     0.38600
H394        H  0.99303119  0.28990680  0.37878349     0.30400
H395        H  0.85622435  0.05970444  0.31302897     0.30500
H396        H  0.82550053  0.23248432  0.31322032     0.30800
Zr397      Zr  0.75111652  0.83734277  0.91455465     2.17500
O398        O  0.78773257  0.89221211  0.94971854    -0.51600
O399        O  0.81803947  0.82152544  0.90469431    -0.74800
O400        O  0.75261928  0.78993069  0.94981840    -0.81600
O401        O  0.79211145  0.94684064  0.87288624    -0.83300
O402        O  0.67941187  0.71594696  0.94983552    -0.78900
O403        O  0.81814974  0.92147945  0.90584771    -0.90600
O404        O  0.79561228  0.77025498  0.87167185    -0.76500
O405        O  0.71118423  0.75252066  0.90144199    -0.86000
O406        O  0.75523054  0.83930906  0.87097710    -0.85700
O407        O  0.66771214  0.80042350  0.93037565    -0.72500
O408        O  0.71001258  0.88182886  0.90157070    -0.84600
Zr409      Zr  0.58848445  0.76117543  0.85920183     2.26400
Zr410      Zr  0.62758808  0.71591187  0.91598910     2.06300
Zr411      Zr  0.71247784  0.88170456  0.85788543     2.10000
Zr412      Zr  0.71434201  0.75445131  0.85805510     1.78800
O413        O  0.70060737  0.95401929  0.85855538    -0.93400
O414        O  0.70397420  0.67124253  0.86309044    -0.41200
O415        O  0.67214276  0.79701747  0.84421753    -0.77900
O416        O  0.62953617  0.71593843  0.87203799    -0.96600
O417        O  0.58493012  0.75852626  0.90281707    -0.89900
O418        O  0.62857902  0.84603191  0.87227517    -0.92700
C419        C  0.82619245  0.79601532  0.88873969     1.01100
C420        C  0.82404497  0.95414056  0.88964631     1.14000
C421        C  0.72279810  0.74641193  0.95877061     1.04800
O422        O  0.62612553  0.63633077  0.91332683    -0.94900
O423        O  0.54377693  0.65294715  0.90414927    -0.90600
O424        O  0.52140739  0.67784627  0.86958620    -0.83700
C425        C  0.51308729  0.64623133  0.88677648     1.11400
O426        O  0.66107499  0.89526401  0.95208774    -0.96800
Zr427      Zr  0.62574133  0.84311151  0.91595959     1.88900
O428        O  0.52212114  0.77893315  0.86924391    -0.73500
O429        O  0.57852699  0.69176152  0.95356191    -0.52700
O430        O  0.57425276  0.80856039  0.95243862    -0.97400
O431        O  0.63310855  0.92508149  0.91075518    -0.54600
O432        O  0.54221554  0.82272899  0.90466154    -0.74000
C433        C  0.51224664  0.80003929  0.88695858     0.98400
O434        O  0.54642696  0.71181588  0.82299376    -0.62800
O435        O  0.77232439  0.91787282  0.82442643    -0.57600
O436        O  0.59847832  0.80156525  0.81923971    -0.94300
O437        O  0.67452005  0.87197151  0.81784027    -0.92700
O438        O  0.76857881  0.79169393  0.82266987    -0.93100
O439        O  0.68173770  0.70390269  0.82123808    -0.91900
C440        C  0.63313121  0.83998317  0.80785243     1.17200
H441        H  0.78948112  0.85683584  0.86527060     0.33100
H442        H  0.61153070  0.68209895  0.86588971     0.44000
H443        H  0.61256844  0.86324071  0.86552286     0.37500
H444        H  0.66829168  0.80091148  0.94811002     0.34000
H445        H  0.72983490  0.67120610  0.85240984     0.25800
H446        H  0.54868479  0.69439671  0.94964163     0.31700
H447        H  0.54558937  0.77625314  0.94710088     0.37600
H448        H  0.75864857  0.81514744  0.81579366     0.32100
H449        H  0.78429298  0.95425036  0.82494590     0.31000
H450        H  0.67788650  0.94877165  0.84470306     0.32700
H451        H  0.61011568  0.92593045  0.92311513     0.31600
H452        H  0.65296648  0.70775226  0.81645011     0.35600
H453        H  0.54774823  0.68049982  0.82451491     0.28300
H454        H  0.81678903  0.88878592  0.95437750     0.32600
H455        H  0.69642128  0.90358997  0.95225920     0.35400
H456        H  0.80147612  0.91483909  0.82938638     0.28000
H457        H  0.51075984  0.70156833  0.82499888     0.40900
H458        H  0.61509830  0.62432840  0.89643603     0.31000
H459        H  0.71565625  0.67099823  0.87993317     0.38600
H460        H  0.61689477  0.92342046  0.89490083     0.30400
H461        H  0.56569995  0.65531914  0.95511948     0.30500
H462        H  0.76333004  0.87620238  0.96318992     0.30800
Zr463      Zr  0.87481051  0.71314859  0.09116859     2.17500
O464        O  0.93122670  0.75557328  0.05697293    -0.51600
O465        O  0.85622391  0.77894890  0.10069749    -0.74800
O466        O  0.82819423  0.70972492  0.05414647    -0.81600
O467        O  0.98193604  0.75425759  0.13689129    -0.83300
O468        O  0.75883435  0.63299761  0.05111482    -0.78900
O469        O  0.95831584  0.77866292  0.10261923    -0.90600
O470        O  0.80093032  0.75167386  0.13229085    -0.76500
O471        O  0.78861912  0.66863149  0.10150518    -0.86000
O472        O  0.87043997  0.71470461  0.13471017    -0.85700
O473        O  0.84470270  0.63072829  0.07514416    -0.72500
O474        O  0.91981830  0.67417289  0.10661752    -0.84600
Zr475      Zr  0.79668860  0.54748893  0.14555526     2.26400
Zr476      Zr  0.75842188  0.58568937  0.08662220     2.06300
Zr477      Zr  0.91349844  0.67438434  0.15028626     2.10000
Zr478      Zr  0.78419693  0.66983856  0.14488186     1.78800
O479        O  0.98656816  0.66479848  0.15476885    -0.93400
O480        O  0.70083123  0.65476112  0.13541890    -0.41200
O481        O  0.82724951  0.63020338  0.16124513    -0.77900
O482        O  0.75091243  0.58608428  0.13039877    -0.96600
O483        O  0.80133015  0.54481712  0.10210378    -0.89900
O484        O  0.88319452  0.59146079  0.13539503    -0.92700
C485        C  0.82847602  0.78452007  0.11638509     1.01100
C486        C  0.98995396  0.78561420  0.11961706     1.14000
C487        C  0.78771407  0.67760918  0.04323450     1.04800
O488        O  0.67795732  0.58160397  0.08348089    -0.94900
O489        O  0.69075526  0.50415154  0.09754197    -0.90600
O490        O  0.71250150  0.48468616  0.13382550    -0.83700
C491        C  0.68207787  0.47547051  0.11604715     1.11400
O492        O  0.94952603  0.62965924  0.05925607    -0.96800
Zr493      Zr  0.88763917  0.59076777  0.09177099     1.88900
O494        O  0.82207871  0.48615084  0.13708523    -0.73500
O495        O  0.74783059  0.53481642  0.05062664    -0.52700
O496        O  0.85664257  0.54456940  0.05356806    -0.97400
O497        O  0.96859489  0.59870525  0.10062289    -0.54600
O498        O  0.87044111  0.50811180  0.10304356    -0.74000
C499        C  0.84672792  0.47800175  0.12059963     0.98400
O500        O  0.74856081  0.48839295  0.17801810    -0.62800
O501        O  0.93970034  0.73504734  0.18356813    -0.57600
O502        O  0.82432542  0.55979372  0.18823498    -0.94300
O503        O  0.89808556  0.63269111  0.18985967    -0.92700
O504        O  0.80929858  0.72253066  0.18124308    -0.93100
O505        O  0.72967408  0.63411153  0.18028846    -0.91900
C506        C  0.86271726  0.59301719  0.19995387     1.17200
H507        H  0.88610987  0.74875773  0.14060199     0.33100
H508        H  0.71631658  0.56770430  0.13537431     0.44000
H509        H  0.90068364  0.57644258  0.14309229     0.37500
H510        H  0.84791570  0.63210532  0.05754497     0.34000
H511        H  0.69912019  0.68269156  0.14337014     0.25800
H512        H  0.74427064  0.50321706  0.05715162     0.31700
H513        H  0.85236198  0.51104110  0.05676017     0.37600
H514        H  0.84428611  0.74900011  0.17818748     0.32100
H515        H  0.94134818  0.76530244  0.17635314     0.31000
H516        H  0.00415200  0.68530625  0.16925958     0.32700
H517        H  0.96332890  0.57793071  0.11536962     0.31600
H518        H  0.72779864  0.60145280  0.18298577     0.35600
H519        H  0.71750535  0.48994760  0.17985708     0.28300
H520        H  0.92215330  0.78022248  0.05087580     0.32600
H521        H  0.95515588  0.60283304  0.05288720     0.35400
H522        H  0.91066969  0.72181477  0.19479387     0.28000
H523        H  0.73783263  0.45455189  0.17149691     0.40900
H524        H  0.66485930  0.56657713  0.06724128     0.31000
H525        H  0.70166704  0.66171201  0.11767460     0.38600
H526        H  0.98955738  0.63359819  0.10638673     0.30400
H527        H  0.71420769  0.52533818  0.04436354     0.30500
H528        H  0.92058571  0.73005392  0.04389634     0.30800
Zr529      Zr  0.25548099  0.08985023  0.09213772     2.17500
O530        O  0.21674981  0.10925062  0.05825286    -0.51600
O531        O  0.18724231  0.00656613  0.10116329    -0.74800
O532        O  0.25357388  0.04323977  0.05556806    -0.81600
O533        O  0.21840692  0.16046908  0.13683215    -0.83300
O534        O  0.32685004  0.04301593  0.05462237    -0.78900
O535        O  0.19102503  0.10894445  0.10371676    -0.90600
O536        O  0.21156594  0.97805022  0.13354253    -0.76500
O537        O  0.29581710  0.04449109  0.10385973    -0.86000
O538        O  0.25362881  0.08707557  0.13578104    -0.85700
O539        O  0.33827536  0.13644079  0.07551501    -0.72500
O540        O  0.29863161  0.17526455  0.10584908    -0.84600
Zr541      Zr  0.42161837  0.17222115  0.14553221     2.26400
Zr542      Zr  0.37901260  0.09173059  0.08836656     2.06300
Zr543      Zr  0.29888717  0.17198943  0.14956510     2.10000
Zr544      Zr  0.29370292  0.04177442  0.14727039     1.78800
O545        O  0.31349841  0.25724488  0.15034298    -0.93400
O546        O  0.29812724  0.96537649  0.14383916    -0.41200
O547        O  0.33858011  0.12596985  0.16163275    -0.77900
O548        O  0.37800542  0.08629065  0.13224078    -0.96600
O549        O  0.42385684  0.17658039  0.10200221    -0.89900
O550        O  0.38224116  0.21897081  0.13420023    -0.92700
C551        C  0.17978542  0.97287816  0.11703901     1.01100
C552        C  0.18593206  0.13572983  0.12021653     1.14000
C553        C  0.28361810  0.03057474  0.04594660     1.04800
O554        O  0.38120757  0.01411490  0.08548616    -0.94900
O555        O  0.46054153  0.10398209  0.09826948    -0.90600
O556        O  0.48248428  0.14807128  0.13358650    -0.83700
C557        C  0.49064916  0.12532161  0.11610448     1.11400
O558        O  0.34482403  0.24119667  0.05647011    -0.96800
Zr559      Zr  0.38213397  0.22055297  0.09051119     1.88900
O560        O  0.48728143  0.25669152  0.13629064    -0.73500
O561        O  0.42879523  0.12807500  0.05154855    -0.52700
O562        O  0.42830568  0.23641674  0.05227221    -0.97400
O563        O  0.37881936  0.29708318  0.09683591    -0.54600
O564        O  0.46644456  0.28154301  0.10136309    -0.74000
C565        C  0.49650074  0.28804879  0.11890904     0.98400
O566        O  0.47770387  0.17833130  0.17838809    -0.62800
O567        O  0.24371862  0.14873691  0.18501198    -0.57600
O568        O  0.41245243  0.19365688  0.18762047    -0.94300
O569        O  0.34192384  0.19881193  0.18870306    -0.92700
O570        O  0.24105041  0.02849435  0.18289225    -0.93100
O571        O  0.32758587  0.02359735  0.18355941    -0.91900
C572        C  0.38081395  0.20190040  0.19896217     1.17200
H573        H  0.21971649  0.07064022  0.14191206     0.33100
H574        H  0.39500460  0.06892722  0.13765730     0.44000
H575        H  0.39926572  0.25212936  0.14122563     0.37500
H576        H  0.33694759  0.13717486  0.05787712     0.34000
H577        H  0.27032338  0.94059672  0.15416138     0.25800
H578        H  0.46064763  0.15654840  0.05744833     0.31700
H579        H  0.46109719  0.24069072  0.05701717     0.37600
H580        H  0.21983037  0.99164631  0.18426856     0.32100
H581        H  0.23327880  0.17426135  0.18578326     0.31000
H582        H  0.29832726  0.26051151  0.13500062     0.32700
H583        H  0.40478190  0.32202382  0.08577119     0.31600
H584        H  0.35791043  0.05577684  0.18755702     0.35600
H585        H  0.47401724  0.14464792  0.17995173     0.28300
H586        H  0.18832697  0.07659137  0.05313023     0.32600
H587        H  0.30835544  0.21953765  0.05887657     0.35400
H588        H  0.21316496  0.11737841  0.18030173     0.28000
H589        H  0.51206163  0.20023647  0.17218802     0.40900
H590        H  0.36795736  0.99720892  0.10140018     0.31000
H591        H  0.28742626  0.95375494  0.12686940     0.38600
H592        H  0.39235385  0.30868941  0.11345384     0.30400
H593        H  0.43772078  0.10297886  0.04604614     0.30500
H594        H  0.24107528  0.11974346  0.04461650     0.30800
Zr595      Zr  0.13636322  0.85134818  0.91335878     2.17500
O596        O  0.08371834  0.83884537  0.94897772    -0.51600
O597        O  0.15410346  0.93505693  0.90318865    -0.74800
O598        O  0.18572337  0.89611214  0.94878706    -0.81600
O599        O  0.02693974  0.78781380  0.87174226    -0.83300
O600        O  0.25617534  0.89077288  0.95013314    -0.78900
O601        O  0.05313012  0.83682805  0.90563982    -0.90600
O602        O  0.20579628  0.96334707  0.87037884    -0.76500
O603        O  0.22161121  0.89284660  0.90121042    -0.86000
O604        O  0.13625902  0.85618232  0.86987469    -0.85700
O605        O  0.16765269  0.79941270  0.92859063    -0.72500
O606        O  0.08849561  0.76640917  0.89940325    -0.84600
Zr607      Zr  0.20767672  0.76097601  0.85748482     2.26400
Zr608      Zr  0.25277518  0.84026017  0.91518052     2.06300
Zr609      Zr  0.09076069  0.77180986  0.85578520     2.10000
Zr610      Zr  0.22145750  0.89706018  0.85781600     1.78800
O611        O  0.01678454  0.68882857  0.85391384    -0.93400
O612        O  0.30506318  0.96744068  0.86501411    -0.41200
O613        O  0.17604986  0.81304711  0.84290780    -0.77900
O614        O  0.25541601  0.84624312  0.87139337    -0.96600
O615        O  0.20714793  0.75574450  0.90097494    -0.89900
O616        O  0.12214305  0.71934879  0.86953611    -0.92700
C617        C  0.17959850  0.96857410  0.88706511     1.01100
C618        C  0.02038888  0.81160226  0.88928521     1.14000
C619        C  0.22731588  0.90593622  0.95865423     1.04800
O620        O  0.33558150  0.91451243  0.91414419    -0.94900
O621        O  0.31370037  0.81705368  0.90281186    -0.90600
O622        O  0.28991624  0.77316646  0.86736914    -0.83700
C623        C  0.32085766  0.79412843  0.88503125     1.11400
O624        O  0.06703932  0.69702947  0.94834579    -0.96800
Zr625      Zr  0.12192272  0.71552312  0.91309712     1.88900
O626        O  0.18651200  0.67537575  0.86659147    -0.73500
O627        O  0.26827704  0.80641194  0.95230737    -0.52700
O628        O  0.15441199  0.69582089  0.94943664    -0.97400
O629        O  0.03813790  0.64444210  0.90699557    -0.54600
O630        O  0.13572852  0.64854755  0.89997349    -0.74000
C631        C  0.16050587  0.64239054  0.88287162     0.98400
O632        O  0.25607035  0.76826384  0.82089864    -0.62800
O633        O  0.05866878  0.80124275  0.82289644    -0.57600
O634        O  0.16663477  0.73122171  0.81804345    -0.94300
O635        O  0.10017714  0.74324174  0.81584523    -0.92700
O636        O  0.18922567  0.91849079  0.82195528    -0.93100
O637        O  0.27430071  0.91581074  0.82177021    -0.91900
C638        C  0.13016684  0.73053163  0.80636581     1.17200
H639        H  0.12030982  0.87449383  0.86430251     0.33100
H640        H  0.28950909  0.86116945  0.86568263     0.44000
H641        H  0.10380487  0.68649262  0.86221423     0.37500
H642        H  0.16635019  0.79843959  0.94625421     0.34000
H643        H  0.30607513  0.99572077  0.85590761     0.25800
H644        H  0.26474916  0.77396999  0.94727780     0.31700
H645        H  0.13565852  0.65878157  0.95046329     0.37600
H646        H  0.16203852  0.88596914  0.81586836     0.32100
H647        H  0.02217040  0.77766232  0.82282478     0.31000
H648        H  0.99725727  0.68670230  0.86869211     0.32700
H649        H  0.03559594  0.61849144  0.91854105     0.31600
H650        H  0.27675867  0.88534135  0.81921560     0.35600
H651        H  0.28881312  0.79914962  0.82302350     0.28300
H652        H  0.09269161  0.87289414  0.95453148     0.32600
H653        H  0.07603637  0.73019292  0.95519476     0.35400
H654        H  0.06238273  0.83330419  0.82873273     0.28000
H655        H  0.26304979  0.74030905  0.82196134     0.40900
H656        H  0.34891856  0.91710890  0.93088003     0.31000
H657        H  0.30514344  0.97611391  0.88246139     0.38600
H658        H  0.03882187  0.63108991  0.89062703     0.30400
H659        H  0.30443807  0.82825073  0.95546955     0.30500
H660        H  0.09625146  0.82553230  0.96195745     0.30800
Zr661      Zr  0.11982904  0.22152777  0.91408330     2.17500
O662        O  0.12963159  0.17758963  0.94887913    -0.51600
O663        O  0.03732700  0.15635145  0.90269303    -0.74800
O664        O  0.07267615  0.22255404  0.94963455    -0.81600
O665        O  0.18703466  0.18007614  0.87184096    -0.83300
O666        O  0.07492323  0.29708172  0.95144912    -0.78900
O667        O  0.13737983  0.15473846  0.90547503    -0.90600
O668        O  0.01048800  0.18035082  0.86958511    -0.76500
O669        O  0.07762069  0.26457411  0.90186363    -0.86000
O670        O  0.11825127  0.21967873  0.87045369    -0.85700
O671        O  0.16878005  0.30374728  0.93097106    -0.72500
O672        O  0.20551061  0.26133457  0.90129327    -0.84600
Zr673      Zr  0.21098093  0.38695794  0.86061532     2.26400
Zr674      Zr  0.12739062  0.34744647  0.91748749     2.06300
Zr675      Zr  0.20343537  0.26133075  0.85757840     2.10000
Zr676      Zr  0.07664821  0.26336022  0.85837060     1.78800
O677        O  0.28741726  0.27318881  0.85792989    -0.93400
O678        O  0.00502812  0.27440151  0.86559954    -0.41200
O679        O  0.16129280  0.30430087  0.84426013    -0.77900
O680        O  0.12491983  0.34693210  0.87355128    -0.96600
O681        O  0.21268829  0.38912805  0.90420929    -0.89900
O682        O  0.25361110  0.34424005  0.87292771    -0.92700
C683        C  0.00465277  0.14866448  0.88630271     1.01100
C684        C  0.16309854  0.14832847  0.88893037     1.14000
C685        C  0.06087902  0.25290160  0.95967046     1.04800
O686        O  0.05343342  0.35608992  0.91968865    -0.94900
O687        O  0.14267989  0.42911671  0.90496608    -0.90600
O688        O  0.19096350  0.45127982  0.87069063    -0.83700
C689        C  0.16668369  0.45927325  0.88739092     1.11400
O690        O  0.26732581  0.30765412  0.95303158    -0.96800
Zr691      Zr  0.25349509  0.34481692  0.91663974     1.88900
O692        O  0.29766489  0.44727274  0.86981798    -0.73500
O693        O  0.16534072  0.39744244  0.95397314    -0.52700
O694        O  0.27032747  0.39901937  0.95196186    -0.97400
O695        O  0.32556023  0.33314858  0.91290183    -0.54600
O696        O  0.32188623  0.42546841  0.90464838    -0.74000
C697        C  0.32965412  0.45518523  0.88669311     0.98400
O698        O  0.21780151  0.45173686  0.83266515    -0.62800
O699        O  0.18188218  0.20373600  0.82322321    -0.57600
O700        O  0.23185099  0.37542999  0.81862037    -0.94300
O701        O  0.23174704  0.30200991  0.81803191    -0.92700
O702        O  0.05488049  0.21212557  0.82160922    -0.93100
O703        O  0.06238644  0.30277212  0.82301456    -0.91900
C704        C  0.23761381  0.34191181  0.80751142     1.17200
H705        H  0.10098130  0.18564111  0.86434229     0.33100
H706        H  0.10934648  0.36548614  0.86771460     0.44000
H707        H  0.28694732  0.35933933  0.86608117     0.37500
H708        H  0.16854703  0.30205431  0.94862184     0.34000
H709        H  0.97915367  0.25087255  0.85412394     0.25800
H710        H  0.19150624  0.43043541  0.94772121     0.31700
H711        H  0.30645971  0.41342399  0.95518727     0.37600
H712        H  0.08157341  0.20353051  0.81991253     0.32100
H713        H  0.20590302  0.19142094  0.82395405     0.31000
H714        H  0.29234330  0.26412724  0.84119859     0.32700
H715        H  0.35065662  0.35786923  0.92429279     0.31600
H716        H  0.09488857  0.31982969  0.81433417     0.35600
H717        H  0.25043531  0.46504121  0.82430662     0.28300
H718        H  0.09527904  0.15208821  0.95378608     0.32600
H719        H  0.25254315  0.27168926  0.94900912     0.35400
H720        H  0.14922860  0.17431662  0.82756263     0.28000
H721        H  0.19217599  0.43383526  0.81996454     0.40900
H722        H  0.02502150  0.32182777  0.91706991     0.31000
H723        H  0.99244115  0.25955265  0.88196513     0.38600
H724        H  0.33944327  0.34603253  0.89642441     0.30400
H725        H  0.13935758  0.40382229  0.96075978     0.30500
H726        H  0.14217184  0.20218234  0.96242007     0.30800
Zr727      Zr  0.88387538  0.09344185  0.09567444     2.17500
O728        O  0.87172161  0.03740913  0.06164063    -0.51600
O729        O  0.96639296  0.11010848  0.10640455    -0.74800
O730        O  0.93106131  0.14019729  0.05932750    -0.81600
O731        O  0.81488711  0.98379963  0.13994395    -0.83300
O732        O  0.92741902  0.21180536  0.05821520    -0.78900
O733        O  0.86257266  0.00818286  0.10543729    -0.90600
O734        O  0.99331798  0.16175404  0.13932932    -0.76500
O735        O  0.92645754  0.17900177  0.10769761    -0.86000
O736        O  0.88626146  0.09394850  0.13936733    -0.85700
O737        O  0.83539248  0.12730250  0.07897240    -0.72500
O738        O  0.79872623  0.04824395  0.10941246    -0.84600
Zr739      Zr  0.79369806  0.16980491  0.14870652     2.26400
Zr740      Zr  0.87732895  0.21267216  0.09227757     2.06300
Zr741      Zr  0.80138828  0.05141192  0.15321960     2.10000
Zr742      Zr  0.92805285  0.17949835  0.15111938     1.78800
O743        O  0.71804149  0.97821816  0.15561009    -0.93400
O744        O  0.00291312  0.26077020  0.14496719    -0.41200
O745        O  0.84347821  0.13727286  0.16514263    -0.77900
O746        O  0.88009527  0.21573594  0.13617756    -0.96600
O747        O  0.79192449  0.16900636  0.10515187    -0.89900
O748        O  0.75120934  0.08374581  0.13727979    -0.92700
C749        C  0.99890541  0.13549669  0.12277437     1.01100
C750        C  0.83771883  0.97611106  0.12229335     1.14000
C751        C  0.94188081  0.18245410  0.04950965     1.04800
O752        O  0.95524764  0.29260183  0.09258722    -0.94900
O753        O  0.85905492  0.27778186  0.10318297    -0.90600
O754        O  0.81191322  0.25362843  0.13768857    -0.83700
C755        C  0.83547290  0.28510849  0.12052844     1.11400
O756        O  0.73922020  0.03271929  0.05727970    -0.96800
Zr757      Zr  0.75102041  0.08332446  0.09355050     1.88900
O758        O  0.70821075  0.14703424  0.13878440    -0.73500
O759        O  0.84706333  0.23268135  0.05520068    -0.52700
O760        O  0.73083039  0.11612290  0.05744431    -0.97400
O761        O  0.67996192  0.99890816  0.09820763    -0.54600
O762        O  0.68446346  0.09855653  0.10484106    -0.74000
C763        C  0.67673360  0.12245904  0.12182583     0.98400
O764        O  0.78620250  0.21684227  0.18250868    -0.62800
O765        O  0.82996604  0.02404575  0.18841097    -0.57600
O766        O  0.77044821  0.13816718  0.19046242    -0.94300
O767        O  0.77270033  0.06596437  0.19242485    -0.92700
O768        O  0.93837715  0.14334583  0.18881971    -0.93100
O769        O  0.95001464  0.23655105  0.18563150    -0.91900
C770        C  0.76552842  0.09983895  0.20221160     1.17200
H771        H  0.90345595  0.07724397  0.14550279     0.33100
H772        H  0.89560119  0.25004804  0.14184442     0.44000
H773        H  0.71779245  0.06586465  0.14410810     0.37500
H774        H  0.83531731  0.12565557  0.06125682     0.34000
H775        H  0.02925074  0.25910397  0.15451769     0.25800
H776        H  0.83744069  0.20379074  0.04419928     0.31700
H777        H  0.69461725  0.09331556  0.05484425     0.37600
H778        H  0.96857643  0.14059295  0.18618949     0.32100
H779        H  0.80426918  0.98844910  0.19080767     0.31000
H780        H  0.71383457  0.96054911  0.13990944     0.32700
H781        H  0.65542660  0.99672510  0.08592340     0.31600
H782        H  0.91836622  0.23525805  0.19012162     0.35600
H783        H  0.81688057  0.25018431  0.18259176     0.28300
H784        H  0.90551204  0.04344196  0.05761835     0.32600
H785        H  0.75498408  0.01254306  0.06144972     0.35400
H786        H  0.86001793  0.02341443  0.18269868     0.28000
H787        H  0.75877256  0.22292049  0.17792719     0.40900
H788        H  0.95998253  0.30370783  0.10985955     0.31000
H789        H  0.01241022  0.26059738  0.12766975     0.38600
H790        H  0.66481508  0.99911006  0.11414271     0.30400
H791        H  0.81492135  0.22994608  0.06001873     0.30500
H792        H  0.86199547  0.05076752  0.04749972     0.30800
C793        C  0.02649377  0.19418937  0.99531356    -0.12500
C794        C  0.02986315  0.23539490  0.98247238     0.04500
C795        C  0.00354956  0.25831611  0.99184562    -0.07800
C796        C  0.97552272  0.24023508  0.01344905    -0.08600
C797        C  0.97240181  0.19922491  0.02644976    -0.03100
C798        C  0.99838337  0.17603185  0.01691390     0.03700
N799        N  0.99739094  0.13430219  0.02884261     0.66200
H800        H  0.04631360  0.17583622  0.98872016     0.15100
H801        H  0.95563977  0.25860750  0.01992186     0.14800
N802        N  0.00338532  0.29907793  0.97944638     0.73900
O803        O  0.96955092  0.09093835  0.02039376    -0.39500
O804        O  0.03316348  0.14185106  0.04266586    -0.39500
O805        O  0.96551756  0.29082416  0.96712758    -0.40200
O806        O  0.03415442  0.34337054  0.98581135    -0.40200
C807        C  0.20599033  0.59568445  0.87844465    -0.12500
C808        C  0.16067411  0.59467861  0.88255099     0.04500
C809        C  0.11733735  0.54858498  0.88795878    -0.07800
C810        C  0.12015747  0.50489336  0.88963612    -0.08600
C811        C  0.16555335  0.50618431  0.88599124    -0.03100
C812        C  0.20881324  0.55194464  0.88036672     0.03700
N813        N  0.25618854  0.55483121  0.87778385     0.66200
H814        H  0.23976355  0.63092156  0.87482546     0.15100
H815        H  0.08651076  0.46962746  0.89350361     0.14800
N816        N  0.06986706  0.54511284  0.89109595     0.73900
O817        O  0.27549890  0.56057061  0.85682735    -0.39500
O818        O  0.27577736  0.54579048  0.89590425    -0.39500
O819        O  0.04023681  0.53192170  0.87318071    -0.40200
O820        O  0.05294783  0.54178191  0.91246001    -0.40200
C821        C  0.14611943  0.02003605  0.90515236    -0.12500
C822        C  0.17711578  0.01553237  0.88767593     0.04500
C823        C  0.20336987  0.05531423  0.87091821    -0.07800
C824        C  0.19782586  0.09747138  0.87184529    -0.08600
C825        C  0.16651999  0.10186491  0.88915361    -0.03100
C826        C  0.14041529  0.06222479  0.90601490     0.03700
N827        N  0.10768213  0.06353538  0.92409853     0.66200
H828        H  0.12542301  0.99031152  0.91828209     0.15100
H829        H  0.21871478  0.12714650  0.85871890     0.14800
N830        N  0.23617832  0.05420026  0.85281744     0.73900
O831        O  0.06178632  0.04422355  0.91929897    -0.39500
O832        O  0.12171096  0.07159059  0.94613088    -0.39500
O833        O  0.22091539  0.04267167  0.83108743    -0.40200
O834        O  0.28251514  0.07660175  0.85698390    -0.40200
C835        C  0.21797162  0.96429063  0.98680297    -0.12500
C836        C  0.24241101  0.93740543  0.98115695     0.04500
C837        C  0.28026427  0.94159112  0.99712465    -0.07800
C838        C  0.29259650  0.97195328  0.01791516    -0.08600
C839        C  0.26815305  0.99883984  0.02355161    -0.03100
C840        C  0.23037928  0.99472161  0.00757977     0.03700
N841        N  0.20542954  0.02254660  0.01143152     0.66200
H842        H  0.18924529  0.96246864  0.97478828     0.15100
H843        H  0.32137755  0.97386413  0.02992099     0.14800
N844        N  0.30576863  0.91433747  0.99308452     0.73900
O845        O  0.22108925  0.06374145  0.00041157    -0.39500
O846        O  0.16148116  0.00028560  0.01978515    -0.39500
O847        O  0.34948815  0.93687649  0.98441292    -0.40200
O848        O  0.29013451  0.87260980  0.00357610    -0.40200
C849        C  0.09433972  0.09408608  0.11293976    -0.12500
C850        C  0.13860136  0.13684870  0.12046972     0.04500
C851        C  0.13631224  0.17908456  0.12869390    -0.07800
C852        C  0.09036904  0.17749060  0.12973226    -0.08600
C853        C  0.04622660  0.13469265  0.12239473    -0.03100
C854        C  0.04838786  0.09255887  0.11395891     0.03700
N855        N  0.00405977  0.04741115  0.10711604     0.66200
H856        H  0.09515357  0.06108378  0.10682873     0.15100
H857        H  0.08948637  0.21054359  0.13569824     0.14800
N858        N  0.18050088  0.22496670  0.13464988     0.73900
O859        O  0.99404996  0.03690244  0.08477059    -0.39500
O860        O  0.97214732  0.02127447  0.12318145    -0.39500
O861        O  0.20042362  0.25867243  0.11850566    -0.40200
O862        O  0.19168299  0.23633750  0.15683415    -0.40200
C863        C  0.56456462  0.13584593  0.13925003    -0.12500
C864        C  0.53776607  0.12351616  0.11713203     0.04500
C865        C  0.55709299  0.11039732  0.09677196    -0.07800
C866        C  0.60185036  0.10987135  0.09897089    -0.08600
C867        C  0.62868386  0.12236036  0.12107672    -0.03100
C868        C  0.60938628  0.13545217  0.14141273     0.03700
N869        N  0.63398433  0.14756762  0.16459882     0.66200
H870        H  0.55062808  0.14569696  0.15524571     0.15100
H871        H  0.61603506  0.10035409  0.08294335     0.14800
N872        N  0.53293939  0.09895910  0.07346142     0.73900
O873        O  0.66090980  0.19298815  0.17044970    -0.39500
O874        O  0.61868679  0.11448798  0.18112017    -0.39500
O875        O  0.54961996  0.13195748  0.05688050    -0.40200
O876        O  0.50437196  0.05374275  0.06768939    -0.40200
C877        C  0.11953066  0.89229454  0.13695808    -0.12500
C878        C  0.13119844  0.92497939  0.11694232     0.04500
C879        C  0.09602162  0.91091986  0.09773901    -0.07800
C880        C  0.05081515  0.86552957  0.09901288    -0.08600
C881        C  0.03896262  0.83309817  0.11916524    -0.03100
C882        C  0.07433726  0.84711634  0.13831869     0.03700
N883        N  0.06511672  0.81674503  0.15963021     0.66200
H884        H  0.14541409  0.90194034  0.15207197     0.15100
H885        H  0.02484563  0.85580013  0.08393346     0.14800
N886        N  0.10565595  0.94132103  0.07643791     0.73900
O887        O  0.04651624  0.82510853  0.17834867    -0.39500
O888        O  0.08661773  0.79133387  0.16178651    -0.39500
O889        O  0.11585972  0.92752237  0.05659799    -0.40200
O890        O  0.09138757  0.97314467  0.07593769    -0.40200
C891        C  0.54635554  0.37708815  0.10715096    -0.12500
C892        C  0.54432317  0.33570264  0.11901879     0.04500
C893        C  0.58781294  0.34111802  0.13032282    -0.07800
C894        C  0.63209344  0.38713990  0.12922294    -0.08600
C895        C  0.63412142  0.42823923  0.11707939    -0.03100
C896        C  0.59048141  0.42306303  0.10616393     0.03700
N897        N  0.58954148  0.46440060  0.09486214     0.66200
H898        H  0.51318298  0.37410930  0.09880779     0.15100
H899        H  0.66535469  0.39039612  0.13760523     0.14800
N900        N  0.58835880  0.30026220  0.14239672     0.73900
O901        O  0.59054634  0.46755335  0.07181446    -0.39500
O902        O  0.57503898  0.48934643  0.10717290    -0.39500
O903        O  0.60515478  0.27607573  0.13115869    -0.40200
O904        O  0.58504040  0.29737381  0.16543021    -0.40200
C905        C  0.83851028  0.90797435  0.09802988    -0.12500
C906        C  0.83490186  0.92671014  0.12098779     0.04500
C907        C  0.82798023  0.89735315  0.14211560    -0.07800
C908        C  0.82575429  0.85122540  0.14002995    -0.08600
C909        C  0.82953387  0.83278110  0.11720867    -0.03100
C910        C  0.83511566  0.86107666  0.09600224     0.03700
N911        N  0.83345475  0.84089252  0.07228040     0.66200
H912        H  0.84235375  0.92905723  0.08148378     0.15100
H913        H  0.82171508  0.82996143  0.15654814     0.14800
N914        N  0.82444857  0.91406941  0.16599842     0.73900
O915        O  0.79281316  0.80507335  0.06449427    -0.39500
O916        O  0.87348988  0.85359655  0.06080462    -0.39500
O917        O  0.78212538  0.89548362  0.17609434    -0.40200
O918        O  0.86317771  0.93562590  0.17907120    -0.40200
C919        C  0.87818971  0.37521714  0.10980329    -0.12500
C920        C  0.83745105  0.33404804  0.12104861     0.04500
C921        C  0.80102735  0.34136520  0.13300225    -0.07800
C922        C  0.80573731  0.38883070  0.13313948    -0.08600
C923        C  0.84599111  0.42972156  0.12149563    -0.03100
C924        C  0.88290778  0.42264409  0.10998211     0.03700
N925        N  0.92636376  0.46332019  0.09908266     0.66200
H926        H  0.90731313  0.37092471  0.10108318     0.15100
H927        H  0.77663257  0.39319323  0.14183942     0.14800
N928        N  0.75794426  0.30102608  0.14430651     0.73900
O929        O  0.96575706  0.48627027  0.11160236    -0.39500
O930        O  0.92903689  0.46767997  0.07607867    -0.39500
O931        O  0.75355012  0.30096056  0.16727433    -0.40200
O932        O  0.71947428  0.27526742  0.13150030    -0.40200
C933        C  0.46465384  0.55606333  0.89737937    -0.12500
C934        C  0.46575748  0.59773741  0.88630758     0.04500
C935        C  0.42224991  0.59141275  0.87460279    -0.07800
C936        C  0.37927653  0.54419007  0.87417904    -0.08600
C937        C  0.37779862  0.50283275  0.88575454    -0.03100
C938        C  0.42142046  0.50903038  0.89724876     0.03700
N939        N  0.42332598  0.46783263  0.90809249     0.66200
H940        H  0.49787025  0.55968807  0.90598706     0.15100
H941        H  0.34623970  0.54035878  0.86537880     0.14800
N942        N  0.41977751  0.63272872  0.86428887     0.73900
O943        O  0.43957453  0.44464366  0.89558400    -0.39500
O944        O  0.42146638  0.46339004  0.93109323    -0.39500
O945        O  0.41824873  0.63616444  0.84132471    -0.40200
O946        O  0.40530799  0.65643270  0.87759424    -0.40200
C947        C  0.87738215  0.03741308  0.87051633    -0.12500
C948        C  0.87046808  0.00377578  0.88958794     0.04500
C949        C  0.90793255  0.01880877  0.90765099    -0.07800
C950        C  0.95075197  0.06601990  0.90613179    -0.08600
C951        C  0.95770518  0.09952453  0.88697766    -0.03100
C952        C  0.91998506  0.08464350  0.86906404     0.03700
N953        N  0.92379783  0.11654840  0.84917348     0.66200
H954        H  0.84951333  0.02727853  0.85632322     0.15100
H955        H  0.97872733  0.07629664  0.92028616     0.14800
N956        N  0.90333819  0.98735155  0.92788663     0.73900
O957        O  0.93927547  0.11106855  0.82867744    -0.39500
O958        O  0.90004888  0.13990752  0.85026358    -0.39500
O959        O  0.92614891  0.96302515  0.92724357    -0.40200
O960        O  0.88851238  0.99438406  0.94823158    -0.40200
C961        C  0.42866123  0.77195526  0.86813725    -0.12500
C962        C  0.46299926  0.79794454  0.88694278     0.04500
C963        C  0.44913990  0.82111787  0.90528832    -0.07800
C964        C  0.40291954  0.81870917  0.90414313    -0.08600
C965        C  0.36871329  0.79327743  0.88521150    -0.03100
C966        C  0.38204507  0.76916408  0.86713829     0.03700
N967        N  0.34928039  0.74178096  0.84750012     0.66200
H968        H  0.43782000  0.75340048  0.85392617     0.15100
H969        H  0.39411524  0.83739434  0.91843229     0.14800
N970        N  0.48113719  0.84739636  0.92539153     0.73900
O971        O  0.35735017  0.76189303  0.82660749    -0.39500
O972        O  0.32290241  0.69475489  0.84923177    -0.39500
O973        O  0.50474086  0.89467019  0.92526623    -0.40200
O974        O  0.47590183  0.82445680  0.94530454    -0.40200
C975        C  0.91540817  0.83949856  0.90114711    -0.12500
C976        C  0.87496388  0.79803477  0.88990541     0.04500
C977        C  0.88265630  0.76052313  0.87957453    -0.07800
C978        C  0.93012032  0.76581738  0.88002591    -0.08600
C979        C  0.97091170  0.80794791  0.89055845    -0.03100
C980        C  0.96306068  0.84487236  0.90154501     0.03700
N981        N  0.00317087  0.88929099  0.91200144     0.66200
H982        H  0.91053307  0.86896660  0.90905803     0.15100
H983        H  0.93489642  0.73632301  0.87204752     0.14800
N984        N  0.84271738  0.71619204  0.86899100     0.73900
O985        O  0.02796265  0.92709715  0.89850137    -0.39500
O986        O  0.00501335  0.89488538  0.93492864    -0.39500
O987        O  0.83919854  0.71236966  0.84599053    -0.40200
O988        O  0.81987101  0.67723144  0.88197759    -0.40200
C989        C  0.79383225  0.74539901  0.01592095    -0.12500
C990        C  0.77249844  0.69392962  0.02061251     0.04500
C991        C  0.73519995  0.65990298  0.00435235    -0.07800
C992        C  0.71956094  0.67789603  0.98463018    -0.08600
C993        C  0.73994198  0.72947551  0.98043726    -0.03100
C994        C  0.77748031  0.76336529  0.99655145     0.03700
N995        N  0.79751620  0.81620514  0.99460892     0.66200
H996        H  0.82254036  0.77238853  0.02788383     0.15100
H997        H  0.69153655  0.65100894  0.97230930     0.14800
N998        N  0.71368627  0.60692980  0.00696048     0.73900
O999        O  0.77601031  0.83589638  0.00583266    -0.39500
O1000       O  0.84230446  0.84349695  0.98789786    -0.39500
O1001       O  0.66991082  0.58140508  0.01533386    -0.40200
O1002       O  0.73251699  0.58509129  0.99530369    -0.40200
C1003       C  0.75310788  0.13161053  0.26879278    -0.12500
C1004       C  0.75291112  0.09175972  0.28137856     0.04500
C1005       C  0.74741689  0.05059527  0.26739261    -0.07800
C1006       C  0.74837085  0.05297092  0.24175134    -0.08600
C1007       C  0.75397490  0.09527031  0.22912574    -0.03100
C1008       C  0.75331366  0.13366592  0.24312846     0.03700
N1009       N  0.75476127  0.17622491  0.23196151     0.66200
H1010       H  0.75551916  0.16299220  0.27885169     0.15100
H1011       H  0.74659449  0.02182393  0.23173666     0.14800
N1012       N  0.74214050  0.00635949  0.27865600     0.73900
O1013       O  0.71405202  0.17472952  0.22737214    -0.39500
O1014       O  0.79415764  0.21827648  0.23367298    -0.39500
O1015       O  0.69895165  0.96879365  0.28102675    -0.40200
O1016       O  0.77940594  0.00008287  0.27937904    -0.40200
C1017       C  0.24935332  0.38040375  0.73992474    -0.12500
C1018       C  0.25166442  0.34075934  0.72847504     0.04500
C1019       C  0.25739223  0.30663954  0.74361538    -0.07800
C1020       C  0.25662411  0.31054752  0.76915614    -0.08600
C1021       C  0.24886900  0.34698668  0.78058385    -0.03100
C1022       C  0.24718474  0.38348206  0.76547338     0.03700
N1023       N  0.23909743  0.42168283  0.77528838     0.66200
H1024       H  0.24557630  0.40769488  0.72903125     0.15100
H1025       H  0.25942529  0.28266705  0.78005047     0.14800
N1026       N  0.26094684  0.26571601  0.73371134     0.73900
O1027       O  0.27572298  0.46565197  0.77698028    -0.39500
O1028       O  0.19547375  0.41524393  0.77480661    -0.39500
O1029       O  0.30354165  0.27015589  0.73123617    -0.40200
O1030       O  0.22308849  0.22238466  0.73466501    -0.40200
C1031       C  0.00368609  0.25142588  0.48840050    -0.12500
C1032       C  0.96876048  0.20059748  0.48501092     0.04500
C1033       C  0.96713201  0.16536545  0.50216295    -0.07800
C1034       C  0.99997016  0.18154332  0.52208835    -0.08600
C1035       C  0.03503526  0.23245283  0.52549017    -0.03100
C1036       C  0.03694807  0.26756603  0.50813160     0.03700
N1037       N  0.07390286  0.31946925  0.50943222     0.66200
H1038       H  0.00647975  0.27888040  0.47511931     0.15100
H1039       H  0.99709695  0.15394184  0.53529299     0.14800
N1040       N  0.93110114  0.11325348  0.50034548     0.73900
O1041       O  0.11491363  0.33480523  0.49840476    -0.39500
O1042       O  0.06098407  0.35069904  0.51572585    -0.39500
O1043       O  0.94500475  0.08334540  0.49306493    -0.40200
O1044       O  0.89068386  0.09621777  0.51212459    -0.40200
C1045       C  0.16385205  0.71446050  0.76807508    -0.12500
C1046       C  0.12502666  0.71764087  0.77977038     0.04500
C1047       C  0.08562152  0.71405776  0.76512978    -0.07800
C1048       C  0.08792852  0.71142165  0.73963659    -0.08600
C1049       C  0.12939591  0.71360520  0.72777413    -0.03100
C1050       C  0.16675339  0.71299083  0.74251793     0.03700
N1051       N  0.20999586  0.71470815  0.73220579     0.66200
H1052       H  0.19427536  0.71624935  0.77868736     0.15100
H1053       H  0.05795319  0.71070029  0.72905800     0.14800
N1054       N  0.04407510  0.71578444  0.77546789     0.73900
O1055       O  0.25135200  0.75491071  0.73377347    -0.39500
O1056       O  0.20981399  0.67412518  0.72895706    -0.39500
O1057       O  0.04277177  0.75595325  0.77400848    -0.40200
O1058       O  0.00408696  0.67524254  0.77952749    -0.40200
C1059       C  0.14793744  0.55997071  0.60414088    -0.12500
C1060       C  0.15467643  0.58441808  0.62663737     0.04500
C1061       C  0.16223402  0.56292814  0.64786534    -0.07800
C1062       C  0.16452566  0.51878930  0.64604072    -0.08600
C1063       C  0.15860046  0.49479949  0.62339643    -0.03100
C1064       C  0.14947703  0.51572857  0.60229622     0.03700
N1065       N  0.14285464  0.49358470  0.57861920     0.66200
H1066       H  0.14236869  0.57579743  0.58752021     0.15100
H1067       H  0.17021551  0.50284648  0.66257501     0.14800
N1068       N  0.16534533  0.58393256  0.67152356     0.73900
O1069       O  0.09918732  0.46702302  0.57035631    -0.39500
O1070       O  0.17937107  0.51071802  0.56399891    -0.39500
O1071       O  0.12639721  0.56719760  0.68447188    -0.40200
O1072       O  0.20750761  0.60966254  0.68147344    -0.40200
C1073       C  0.20555919  0.09290207  0.62836266    -0.12500
C1074       C  0.16053719  0.09018108  0.62154061     0.04500
C1075       C  0.12088818  0.04416434  0.61302106    -0.07800
C1076       C  0.12714315  0.00232061  0.61134590    -0.08600
C1077       C  0.17222801  0.00505051  0.61823863    -0.03100
C1078       C  0.21182826  0.05118604  0.62672714     0.03700
N1079       N  0.25941099  0.05711067  0.63283144     0.66200
H1080       H  0.23677712  0.12811542  0.63449967     0.15100
H1081       H  0.09587263  0.96704955  0.60531084     0.14800
N1082       N  0.07318204  0.03839065  0.60733229     0.73900
O1083       O  0.29252084  0.07087161  0.61644450    -0.39500
O1084       O  0.27194498  0.06045419  0.65502878    -0.39500
O1085       O  0.06051943  0.03643431  0.58523176    -0.40200
O1086       O  0.04018509  0.02373880  0.62382229    -0.40200
C1087       C  0.42028513  0.21063389  0.26619834    -0.12500
C1088       C  0.38240484  0.21520149  0.27810546     0.04500
C1089       C  0.34946450  0.22346228  0.26343450    -0.07800
C1090       C  0.35219989  0.22237063  0.23784576    -0.08600
C1091       C  0.38692596  0.21279642  0.22592018    -0.03100
C1092       C  0.42281213  0.20918525  0.24057387     0.03700
N1093       N  0.46060818  0.20129171  0.23010442     0.66200
H1094       H  0.44674987  0.20510794  0.27678154     0.15100
H1095       H  0.32506819  0.22694078  0.22731659     0.14800
N1096       N  0.31165730  0.23132664  0.27396440     0.73900
O1097       O  0.50329496  0.23864428  0.22612778    -0.39500
O1098       O  0.45583163  0.15823513  0.23132411    -0.39500
O1099       O  0.31953216  0.27548534  0.27575540    -0.40200
O1100       O  0.26728330  0.19530488  0.27469066    -0.40200
C1101       C  0.30090006  0.98439658  0.49336620    -0.12500
C1102       C  0.26656846  0.99500569  0.48180815     0.04500
C1103       C  0.21775287  0.97323410  0.49188285    -0.07800
C1104       C  0.20472478  0.94183873  0.51251818    -0.08600
C1105       C  0.23900589  0.93098496  0.52394855    -0.03100
C1106       C  0.28790308  0.95316679  0.51403728     0.03700
N1107       N  0.32559796  0.94554218  0.52486029     0.66200
H1108       H  0.33863256  0.00043460  0.48635561     0.15100
H1109       H  0.16702268  0.92575327  0.51958317     0.14800
N1110       N  0.18053449  0.98232547  0.48161814     0.73900
O1111       O  0.33476808  0.91347700  0.51568536    -0.39500
O1112       O  0.35741931  0.97877723  0.53880129    -0.39500
O1113       O  0.14604816  0.94866201  0.46890221    -0.40200
O1114       O  0.17490529  0.01709203  0.49027410    -0.40200
C1115       C  0.13375164  0.16802994  0.37753234    -0.12500
C1116       C  0.13066889  0.12315983  0.38525224     0.04500
C1117       C  0.08501349  0.08482671  0.39499512    -0.07800
C1118       C  0.04382823  0.09206008  0.39658940    -0.08600
C1119       C  0.04694313  0.13695100  0.38877746    -0.03100
C1120       C  0.09288570  0.17546763  0.37941504     0.03700
N1121       N  0.09978466  0.22347099  0.37300435     0.66200
H1122       H  0.16877784  0.19845591  0.37064790     0.15100
H1123       H  0.00880960  0.06182666  0.40347514     0.14800
N1124       N  0.07899096  0.03763565  0.40241638     0.73900
O1125       O  0.11793733  0.25813524  0.38866408    -0.39500
O1126       O  0.10018353  0.23446113  0.35071469    -0.39500
O1127       O  0.08060488  0.02911920  0.42490034    -0.40200
O1128       O  0.05955908  0.00125925  0.38772078    -0.40200
C1129       C  0.56754370  0.14384658  0.36422060    -0.12500
C1130       C  0.54268443  0.13631102  0.38678094     0.04500
C1131       C  0.56526427  0.13057695  0.40806534    -0.07800
C1132       C  0.61041827  0.13073321  0.40628162    -0.08600
C1133       C  0.63487485  0.13734053  0.38369880    -0.03100
C1134       C  0.61318568  0.14469556  0.36250249     0.03700
N1135       N  0.63593146  0.15163855  0.33896749     0.66200
H1136       H  0.55116825  0.14843310  0.34758743     0.15100
H1137       H  0.62692769  0.12655486  0.42297141     0.14800
N1138       N  0.54435473  0.12688116  0.43184065     0.73900
O1139       O  0.62240173  0.11421343  0.32520523    -0.39500
O1140       O  0.65894980  0.19506750  0.32982111    -0.39500
O1141       O  0.52353110  0.08520439  0.44278982    -0.40200
O1142       O  0.55755338  0.16636930  0.44394988    -0.40200
C1143       C  0.91078479  0.62090353  0.23914353    -0.12500
C1144       C  0.86616266  0.58744642  0.22704781     0.04500
C1145       C  0.82534597  0.55273902  0.24154118    -0.07800
C1146       C  0.82861037  0.55504890  0.26715140    -0.08600
C1147       C  0.87174640  0.59139838  0.27921425    -0.03100
C1148       C  0.91406134  0.62309330  0.26476784     0.03700
N1149       N  0.96075074  0.65806664  0.27560096     0.66200
H1150       H  0.94342788  0.64685272  0.22868837     0.15100
H1151       H  0.79570936  0.52963951  0.27758658     0.14800
N1152       N  0.77911820  0.51640580  0.23089242     0.73900
O1153       O  0.99291572  0.64498393  0.27914020    -0.39500
O1154       O  0.97458858  0.70411978  0.27514464    -0.39500
O1155       O  0.76978919  0.47176122  0.22899495    -0.40200
O1156       O  0.74352993  0.52531479  0.23000118    -0.40200
C1157       C  0.85670602  0.87339915  0.40806176    -0.12500
C1158       C  0.82412586  0.83689442  0.39141885     0.04500
C1159       C  0.79613285  0.84926788  0.37529592    -0.07800
C1160       C  0.80265943  0.89736843  0.37552713    -0.08600
C1161       C  0.83618824  0.93432516  0.39170089    -0.03100
C1162       C  0.86266921  0.92139255  0.40853516     0.03700
N1163       N  0.89566703  0.95596841  0.42635979     0.66200
H1164       H  0.87822757  0.86500318  0.42089272     0.15100
H1165       H  0.78089117  0.90551696  0.36273858     0.14800
N1166       N  0.76083108  0.81387710  0.35843535     0.73900
O1167       O  0.87933658  0.95494617  0.44765307    -0.39500
O1168       O  0.94219178  0.97646036  0.42303888    -0.39500
O1169       O  0.71512496  0.79051402  0.36412564    -0.40200
O1170       O  0.77321534  0.81551639  0.33629168    -0.40200
C1171       C  0.88748493  0.43586813  0.39016714    -0.12500
C1172       C  0.84532375  0.43582984  0.38052540     0.04500
C1173       C  0.80593041  0.39070352  0.37101995    -0.07800
C1174       C  0.80883092  0.34691080  0.37198279    -0.08600
C1175       C  0.85030998  0.34667917  0.38231739    -0.03100
C1176       C  0.89041624  0.39208897  0.39105116     0.03700
N1177       N  0.93518732  0.39501686  0.40001490     0.66200
H1178       H  0.91873632  0.47028569  0.39701562     0.15100
H1179       H  0.77743126  0.31238948  0.36531673     0.14800
N1180       N  0.76144041  0.38774725  0.36160827     0.73900
O1181       O  0.96991647  0.40384930  0.38514934    -0.39500
O1182       O  0.94466761  0.40124191  0.42261542    -0.39500
O1183       O  0.75447950  0.38528169  0.33877555    -0.40200
O1184       O  0.72502914  0.37595897  0.37583313    -0.40200
C1185       C  0.05920680  0.85236362  0.36434653    -0.12500
C1186       C  0.02899317  0.84114438  0.38530629     0.04500
C1187       C  0.04775633  0.87366076  0.40565650    -0.07800
C1188       C  0.09598836  0.91496179  0.40484526    -0.08600
C1189       C  0.12661141  0.92528493  0.38412496    -0.03100
C1190       C  0.10738177  0.89357140  0.36356254     0.03700
N1191       N  0.13556448  0.90266273  0.34151262     0.66200
H1192       H  0.04574023  0.82870828  0.34827913     0.15100
H1193       H  0.10953556  0.93890859  0.42080210     0.14800
N1194       N  0.01923036  0.86524115  0.42753161     0.73900
O1195       O  0.15962200  0.88008739  0.33810122    -0.39500
O1196       O  0.12602605  0.92203055  0.32345108    -0.39500
O1197       O  0.02966936  0.84807099  0.44617868    -0.40200
O1198       O  0.99419633  0.88702598  0.43012982    -0.40200
C1199       C  0.62409134  0.39417867  0.36855356    -0.12500
C1200       C  0.62795504  0.43178001  0.38449806     0.04500
C1201       C  0.58539360  0.42250826  0.39818951    -0.07800
C1202       C  0.54120132  0.37646143  0.39613773    -0.08600
C1203       C  0.53757379  0.33826796  0.38069759    -0.03100
C1204       C  0.57984660  0.34793250  0.36655236     0.03700
N1205       N  0.57930402  0.31126198  0.35040237     0.66200
H1206       H  0.65596354  0.40021486  0.35768922     0.15100
H1207       H  0.50937528  0.37079694  0.40693641     0.14800
N1208       N  0.58559926  0.45955449  0.41392916     0.73900
O1209       O  0.57230867  0.31399380  0.32783275    -0.39500
O1210       O  0.59819273  0.28536744  0.35741400    -0.39500
O1211       O  0.56654374  0.48500101  0.40646376    -0.40200
O1212       O  0.59250586  0.45764455  0.43657497    -0.40200
C1213       C  0.65975668  0.88076487  0.74068601    -0.12500
C1214       C  0.61931102  0.84042540  0.72879951     0.04500
C1215       C  0.57903883  0.80556262  0.74358254    -0.07800
C1216       C  0.58300110  0.80833639  0.76924898    -0.08600
C1217       C  0.62613740  0.84547984  0.78103521    -0.03100
C1218       C  0.66365488  0.88367759  0.76625420     0.03700
N1219       N  0.70773572  0.92441461  0.77652313     0.66200
H1220       H  0.69064811  0.90925199  0.73012752     0.15100
H1221       H  0.55259300  0.77959219  0.77994260     0.14800
N1222       N  0.53421871  0.76612231  0.73318457     0.73900
O1223       O  0.74819891  0.92390205  0.77514308    -0.39500
O1224       O  0.70924389  0.96558995  0.77998469    -0.39500
O1225       O  0.52407559  0.72145122  0.73632116    -0.40200
O1226       O  0.49922090  0.77448272  0.72819428    -0.40200
C1227       C  0.38006759  0.53107055  0.64092571    -0.12500
C1228       C  0.37656956  0.49240254  0.62602904     0.04500
C1229       C  0.41905278  0.50081995  0.61245554    -0.07800
C1230       C  0.46255687  0.54756026  0.61323784    -0.08600
C1231       C  0.46559227  0.58681790  0.62752846    -0.03100
C1232       C  0.42380356  0.57762510  0.64196685     0.03700
N1233       N  0.42396298  0.61516857  0.65726891     0.66200
H1234       H  0.34823325  0.52575972  0.65161574     0.15100
H1235       H  0.49433124  0.55285169  0.60250549     0.14800
N1236       N  0.41945208  0.46230933  0.59812832     0.73900
O1237       O  0.40318617  0.63881759  0.64960441    -0.39500
O1238       O  0.43019877  0.61343407  0.67999714    -0.39500
O1239       O  0.41697101  0.46389176  0.57511579    -0.40200
O1240       O  0.43475652  0.43520578  0.60770757    -0.40200
C1241       C  0.88391377  0.02177655  0.64283580    -0.12500
C1242       C  0.87012913  0.99330580  0.62123444     0.04500
C1243       C  0.90136692  0.01285617  0.60041397    -0.07800
C1244       C  0.94490722  0.05950142  0.60172092    -0.08600
C1245       C  0.95810535  0.08823955  0.62319482    -0.03100
C1246       C  0.92690568  0.06877402  0.64397604     0.03700
N1247       N  0.93820225  0.09559875  0.66655206     0.66200
H1248       H  0.86111385  0.00766589  0.65918445     0.15100
H1249       H  0.96783810  0.07382572  0.58542004     0.14800
N1250       N  0.88875148  0.98761752  0.57738234     0.73900
O1251       O  0.91590114  0.11920842  0.67182298    -0.39500
O1252       O  0.95942377  0.08506510  0.68335006    -0.39500
O1253       O  0.86424246  0.99765248  0.56222417    -0.40200
O1254       O  0.91469074  0.96949245  0.56953943    -0.40200
C1255       C  0.42202497  0.75688706  0.63661328    -0.12500
C1256       C  0.46399989  0.79750279  0.62586207     0.04500
C1257       C  0.45781996  0.83453754  0.61365178    -0.07800
C1258       C  0.41045203  0.82942627  0.61175475    -0.08600
C1259       C  0.36825306  0.78825179  0.62200281    -0.03100
C1260       C  0.37443379  0.75157320  0.63464991     0.03700
N1261       N  0.33283426  0.70773918  0.64481678     0.66200
H1262       H  0.42590961  0.72829462  0.64610683     0.15100
H1263       H  0.40706008  0.85882472  0.60264141     0.14800
N1264       N  0.49945127  0.87889449  0.60398193     0.73900
O1265       O  0.31076927  0.66859846  0.63198245    -0.39500
O1266       O  0.32643991  0.70444376  0.66770698    -0.39500
O1267       O  0.50549363  0.88397548  0.58109577    -0.40200
O1268       O  0.52180364  0.91693672  0.61751574    -0.40200
C1269       C  0.88021186  0.75861083  0.63120200    -0.12500
C1270       C  0.87682244  0.79860910  0.62110241     0.04500
C1271       C  0.91998827  0.83879031  0.61035439    -0.07800
C1272       C  0.96513564  0.83853781  0.61023372    -0.08600
C1273       C  0.96856816  0.79879464  0.62062095    -0.03100
C1274       C  0.92511137  0.75806904  0.63089275     0.03700
N1275       N  0.92503067  0.71466033  0.64012362     0.66200
H1276       H  0.84740808  0.72673501  0.63897975     0.15100
H1277       H  0.99793543  0.87018090  0.60230358     0.14800
N1278       N  0.91911314  0.88055041  0.59968488     0.73900
O1279       O  0.92809882  0.71007559  0.66291353    -0.39500
O1280       O  0.90879366  0.67638440  0.62670465    -0.39500
O1281       O  0.93335277  0.91971940  0.61222358    -0.40200
O1282       O  0.91729638  0.88294131  0.57668589    -0.40200
C1283       C  0.78406608  0.75095017  0.52110901    -0.12500
C1284       C  0.73337796  0.72301992  0.52799226     0.04500
C1285       C  0.70111133  0.68126387  0.51340039    -0.07800
C1286       C  0.71960686  0.66891793  0.49273066    -0.08600
C1287       C  0.77003136  0.69717764  0.48567862    -0.03100
C1288       C  0.80251698  0.73873741  0.50032813     0.03700
N1289       N  0.85458931  0.76857892  0.49486506     0.66200
H1290       H  0.81009166  0.78278914  0.53195627     0.15100
H1291       H  0.69361406  0.63716296  0.48182534     0.14800
N1292       N  0.64906455  0.65131026  0.51875846     0.73900
O1293       O  0.86990228  0.80868511  0.48288353    -0.39500
O1294       O  0.88548031  0.76225079  0.50720338    -0.39500
O1295       O  0.61843623  0.65946672  0.50729441    -0.40200
O1296       O  0.63340087  0.60996889  0.52964293    -0.40200
loop_ 
_geom_bond_atom_site_label_1 
_geom_bond_atom_site_label_2 
_geom_bond_distance 
_geom_bond_site_symmetry_2 
_ccdc_geom_bond_type 
Zr1           O2   2.434       .  S
Zr1           O3   2.450       .  S
Zr1           O4   2.455       .  S
Zr1           O7   2.418       .  S
Zr1           O9   2.379       .  S
Zr1          O10   2.386       .  S
Zr1          O11   2.406       .  S
Zr1          O12   2.413       .  S
O2           H58   0.990       .  S
O2           H66   0.990       .  S
O3           C23   1.288       .  A
O4           C25   1.287       .  A
O5          Zr15   2.427       .  S
O5           C24   1.286       .  A
O6          Zr14   2.444       .  S
O6           C25   1.289       .  A
O7           C24   1.281       .  A
O8          Zr16   2.407       .  S
O8           C23   1.279       .  A
O9          Zr14   2.390       .  S
O9          Zr16   2.386       .  S
O10         Zr15   2.391       .  S
O10         Zr16   2.374       .  S
O10          H45   0.966       .  S
O11         Zr14   2.391       .  S
O11         Zr31   2.393       .  S
O11          H48   0.966       .  S
O12         Zr15   2.391       .  S
O12         Zr31   2.400       .  S
Zr13         O38   2.439       .  S
Zr13         O32   2.416       .  S
Zr13         O40   2.438       .  S
Zr13         O28   2.418       .  S
Zr13         O19   2.395       .  S
Zr13         O20   2.402       .  S
Zr13         O21   2.385       .  S
Zr13         O22   2.379       .  S
Zr14         O33   2.438       .  S
Zr14         O26   2.434       .  S
Zr14         O27   2.430       .  S
Zr14         O20   2.395       .  S
Zr14         O21   2.387       .  S
Zr15         O17   2.435       .  S
Zr15         O39   2.434       .  S
Zr15         O41   2.447       .  S
Zr15         O19   2.391       .  S
Zr15         O22   2.383       .  S
Zr16         O42   2.435       .  S
Zr16         O43   2.436       .  S
Zr16         O18   2.436       .  S
Zr16         O19   2.399       .  S
Zr16         O20   2.381       .  S
O17          H54   0.990       .  S
O18          H49   0.990       .  S
O18          H63   0.990       .  S
O20          H46   0.967       .  S
O21         Zr31   2.368       .  S
O22         Zr31   2.367       .  S
O22          H47   0.965       .  S
C23        C1256   1.487       .  S
C24        C1231   1.485       .  S
C25        C1214   1.505       .  S
O26          H62   0.990       .  S
O27          C29   1.287       .  A
O28          C29   1.282       .  A
C29        C1242   1.482       .  S
O30         Zr31   2.439       .  S
O30          H59   0.990       .  S
Zr31         O34   2.437       .  S
Zr31         O35   2.439       .  S
Zr31         O36   2.440       .  S
O32          C37   1.281       .  A
O33          H50   0.990       .  S
O33          H65   0.990       .  S
O34          H51   0.990       .  S
O35          H55   0.990       .  S
O35          H64   0.990       .  S
O36          C37   1.287       .  A
C37        C1270   1.485       .  S
O38          H57   0.990       .  S
O38          H61   0.990       .  S
O39          H53   0.990       .  S
O39          H60   0.990       .  S
O40          C44   1.287       .  A
O41          C44   1.287       .  A
O42          H52   0.990       .  S
O43          H56   0.990       .  S
C44        C1284   1.501       .  S
Zr67         O68   2.441       .  S
Zr67         O69   2.434       .  S
Zr67         O70   2.458       .  S
Zr67         O73   2.424       .  S
Zr67         O75   2.376       .  S
Zr67         O76   2.388       .  S
Zr67         O77   2.402       .  S
Zr67         O78   2.406       .  S
O68         H124   0.990       .  S
O68         H132   0.990       .  S
O69          C89   1.283       .  A
O70          C91   1.289       .  A
O71         Zr81   2.435       .  S
O71          C90   1.285       .  A
O72         Zr80   2.429       .  S
O72          C91   1.283       .  A
O73          C90   1.284       .  A
O74         Zr82   2.412       .  S
O74          C89   1.281       .  A
O75         Zr80   2.392       .  S
O75         Zr82   2.381       .  S
O76         Zr81   2.394       .  S
O76         Zr82   2.376       .  S
O76         H111   0.965       .  S
O77         Zr80   2.396       .  S
O77         Zr97   2.387       .  S
O77         H114   0.966       .  S
O78         Zr81   2.400       .  S
O78         Zr97   2.391       .  S
Zr79        O104   2.440       .  S
Zr79         O98   2.419       .  S
Zr79        O106   2.433       .  S
Zr79         O94   2.422       .  S
Zr79         O85   2.398       .  S
Zr79         O86   2.402       .  S
Zr79         O87   2.379       .  S
Zr79         O88   2.381       .  S
Zr80         O99   2.437       .  S
Zr80         O92   2.435       .  S
Zr80         O93   2.417       .  S
Zr80         O86   2.394       .  S
Zr80         O87   2.383       .  S
Zr81         O83   2.435       .  S
Zr81        O105   2.436       .  S
Zr81        O107   2.452       .  S
Zr81         O85   2.388       .  S
Zr81         O88   2.383       .  S
Zr82        O108   2.434       .  S
Zr82        O109   2.436       .  S
Zr82         O84   2.438       .  S
Zr82         O85   2.402       .  S
Zr82         O86   2.384       .  S
O83         H120   0.990       .  S
O84         H115   0.990       .  S
O84         H129   0.990       .  S
O86         H112   0.966       .  S
O87         Zr97   2.373       .  S
O88         Zr97   2.372       .  S
O88         H113   0.966       .  S
C89        C1172   1.483       .  S
C90        C1200   1.490       .  S
C91        C1147   1.497       .  S
O92         H128   0.990   1_655  S
O93          C95   1.284       .  A
O94          C95   1.283       .  A
C95        C1186   1.482   1_655  S
O96         Zr97   2.438       .  S
O96         H125   0.990       .  S
Zr97        O100   2.437       .  S
Zr97        O101   2.438       .  S
Zr97        O102   2.417       .  S
O98         C103   1.284       .  A
O99         H116   0.990       .  S
O99         H131   0.990       .  S
O100        H117   0.990       .  S
O101        H121   0.990       .  S
O101        H130   0.990       .  S
O102        C103   1.281       .  A
C103       C1158   1.485       .  S
O104        H123   0.990       .  S
O104        H127   0.990       .  S
O105        H119   0.990       .  S
O105        H126   0.990       .  S
O106        C110   1.284       .  A
O107        C110   1.290       .  A
O108        H118   0.990       .  S
O109        H122   0.990       .  S
C110       C1287   1.497       .  S
Zr133       O134   2.440       .  S
Zr133       O135   2.438       .  S
Zr133       O136   2.455       .  S
Zr133       O139   2.426       .  S
Zr133       O141   2.380       .  S
Zr133       O142   2.385       .  S
Zr133       O143   2.402       .  S
Zr133       O144   2.409       .  S
O134        H190   0.990       .  S
O134        H198   0.990       .  S
O135        C155   1.284       .  A
O136        C157   1.290       .  A
O137       Zr147   2.437       .  S
O137        C156   1.286       .  A
O138       Zr146   2.437       .  S
O138        C157   1.285       .  A
O139        C156   1.285       .  A
O140       Zr148   2.421       .  S
O140        C155   1.283       .  A
O141       Zr146   2.396       .  S
O141       Zr148   2.379       .  S
O142       Zr147   2.395       .  S
O142       Zr148   2.368       .  S
O142        H177   0.967       .  S
O143       Zr146   2.401       .  S
O143       Zr163   2.383       .  S
O143        H180   0.961       .  S
O144       Zr147   2.399       .  S
O144       Zr163   2.397       .  S
Zr145       O170   2.440       .  S
Zr145       O164   2.407       .  S
Zr145       O172   2.438       .  S
Zr145       O160   2.426       .  S
Zr145       O151   2.398       .  S
Zr145       O152   2.403       .  S
Zr145       O153   2.376       .  S
Zr145       O154   2.382       .  S
Zr146       O165   2.437       .  S
Zr146       O158   2.434       .  S
Zr146       O159   2.439       .  S
Zr146       O152   2.396       .  S
Zr146       O153   2.380       .  S
Zr147       O149   2.434       .  S
Zr147       O171   2.436       .  S
Zr147       O173   2.455       .  S
Zr147       O151   2.392       .  S
Zr147       O154   2.384       .  S
Zr148       O174   2.436       .  S
Zr148       O175   2.434       .  S
Zr148       O150   2.437       .  S
Zr148       O151   2.402       .  S
Zr148       O152   2.389       .  S
O149        H186   0.990       .  S
O150        H181   0.990       .  S
O150        H195   0.990       .  S
O152        H178   0.962       .  S
O153       Zr163   2.372       .  S
O154       Zr163   2.374       .  S
O154        H179   0.962       .  S
C155       C1203   1.493       .  S
C156       C1130   1.488       .  S
C157       C1088   1.499       .  S
O158        H194   0.990       .  S
O159        C161   1.288       .  A
O160        C161   1.283       .  A
C161       C1116   1.481       .  S
O162       Zr163   2.439       .  S
O162        H191   0.990   1_545  S
Zr163       O166   2.437       .  S
Zr163       O167   2.439   1_545  S
Zr163       O168   2.420   1_545  S
O164        C169   1.281   1_545  A
O165        H182   0.990       .  S
O165        H197   0.990       .  S
O166        H183   0.990   1_545  S
O167        H187   0.990       .  S
O167        H196   0.990       .  S
O168        C169   1.281       .  A
C169       C1189   1.479       .  S
O170        H189   0.990       .  S
O170        H193   0.990       .  S
O171        H185   0.990       .  S
O171        H192   0.990       .  S
O172        C176   1.285       .  A
O173        C176   1.291       .  A
O174        H184   0.990       .  S
O175        H188   0.990       .  S
C176       C1102   1.505   1_545  S
Zr199       O200   2.433       .  S
Zr199       O201   2.432       .  S
Zr199       O202   2.448       .  S
Zr199       O205   2.410       .  S
Zr199       O207   2.380       .  S
Zr199       O208   2.388       .  S
Zr199       O209   2.399       .  S
Zr199       O210   2.408       .  S
O200        H256   0.990       .  S
O200        H264   0.990       .  S
O201        C221   1.283       .  A
O202        C223   1.286       .  A
O203       Zr213   2.446       .  S
O203        C222   1.289       .  A
O204       Zr212   2.430       .  S
O204        C223   1.286       .  A
O205        C222   1.280       .  A
O206       Zr214   2.413       .  S
O206        C221   1.282       .  A
O207       Zr212   2.385       .  S
O207       Zr214   2.384       .  S
O208       Zr213   2.386       .  S
O208       Zr214   2.371       .  S
O208        H243   0.966       .  S
O209       Zr212   2.395       .  S
O209       Zr229   2.387       .  S
O209        H246   0.965       .  S
O210       Zr213   2.395       .  S
O210       Zr229   2.396       .  S
Zr211       O236   2.441       .  S
Zr211       O230   2.426       .  S
Zr211       O238   2.449       .  S
Zr211       O226   2.451       .  S
Zr211       O217   2.404       .  S
Zr211       O218   2.403       .  S
Zr211       O219   2.379       .  S
Zr211       O220   2.384       .  S
Zr212       O231   2.436       .  S
Zr212       O224   2.434       .  S
Zr212       O225   2.417       .  S
Zr212       O218   2.395       .  S
Zr212       O219   2.391       .  S
Zr213       O215   2.435       .  S
Zr213       O237   2.436       .  S
Zr213       O239   2.452       .  S
Zr213       O217   2.393       .  S
Zr213       O220   2.392       .  S
Zr214       O240   2.437       .  S
Zr214       O241   2.436       .  S
Zr214       O216   2.437       .  S
Zr214       O217   2.400       .  S
Zr214       O218   2.380       .  S
O215        H252   0.990       .  S
O216        H247   0.990       .  S
O216        H261   0.990       .  S
O218        H244   0.966       .  S
O219       Zr229   2.375       .  S
O220       Zr229   2.362       .  S
O220        H245   0.966       .  S
C221       C1060   1.481       .  S
C222       C1259   1.485       .  S
C223       C1049   1.497       .  S
O224        H260   0.990       .  S
O225        C227   1.282       .  A
O226        C227   1.290       .  A
C227       C1273   1.483   1_455  S
O228       Zr229   2.438       .  S
O228        H257   0.991       .  S
Zr229       O232   2.437       .  S
Zr229       O233   2.440       .  S
Zr229       O234   2.427       .  S
O230        C235   1.284       .  A
O231        H248   0.990       .  S
O231        H263   0.990       .  S
O232        H249   0.990       .  S
O233        H253   0.989       .  S
O233        H262   0.990       .  S
O234        C235   1.283       .  A
C235       C1077   1.482   1_565  S
O236        H255   0.990       .  S
O236        H259   0.990       .  S
O237        H251   0.990       .  S
O237        H258   0.990       .  S
O238        C242   1.290       .  A
O239        C242   1.289       .  A
O240        H250   0.990       .  S
O241        H254   0.990       .  S
C242       C1105   1.504       .  S
Zr265       O266   2.441       .  S
Zr265       O267   2.427       .  S
Zr265       O268   2.453       .  S
Zr265       O271   2.444       .  S
Zr265       O273   2.381       .  S
Zr265       O274   2.382       .  S
Zr265       O275   2.406       .  S
Zr265       O276   2.403       .  S
O266        H322   0.990       .  S
O266        H330   0.990       .  S
O267        C287   1.283       .  A
O268        C289   1.289       .  A
O269       Zr279   2.403       .  S
O269        C288   1.279       .  A
O270       Zr278   2.442       .  S
O270        C289   1.285       .  A
O271        C288   1.287       .  A
O272       Zr280   2.408       .  S
O272        C287   1.278       .  A
O273       Zr278   2.394       .  S
O273       Zr280   2.385       .  S
O274       Zr279   2.391       .  S
O274       Zr280   2.374       .  S
O274        H309   0.966       .  S
O275       Zr278   2.403       .  S
O275       Zr295   2.381       .  S
O275        H312   0.965       .  S
O276       Zr279   2.395       .  S
O276       Zr295   2.395       .  S
Zr277       O302   2.442       .  S
Zr277       O296   2.416       .  S
Zr277       O304   2.447       .  S
Zr277       O292   2.430       .  S
Zr277       O283   2.393       .  S
Zr277       O284   2.403       .  S
Zr277       O285   2.377       .  S
Zr277       O286   2.377       .  S
Zr278       O297   2.434       .  S
Zr278       O290   2.436       .  S
Zr278       O291   2.430       .  S
Zr278       O284   2.399       .  S
Zr278       O285   2.385       .  S
Zr279       O281   2.435       .  S
Zr279       O303   2.437       .  S
Zr279       O305   2.417       .  S
Zr279       O283   2.388       .  S
Zr279       O286   2.384       .  S
Zr280       O306   2.436       .  S
Zr280       O307   2.435       .  S
Zr280       O282   2.438       .  S
Zr280       O283   2.395       .  S
Zr280       O284   2.390       .  S
O281        H318   0.990       .  S
O282        H313   0.990       .  S
O282        H327   0.990       .  S
O284        H310   0.965       .  S
O285       Zr295   2.372       .  S
O286       Zr295   2.374       .  S
O286        H311   0.966       .  S
C287       C1228   1.483       .  S
C288       C1063   1.485       .  S
C289       C1018   1.500       .  S
O290        H326   0.990       .  S
O291        C293   1.286       .  A
O292        C293   1.284       .  A
C293       C1074   1.479       .  S
O294       Zr295   2.438       .  S
O294        H323   0.990       .  S
Zr295       O298   2.437       .  S
Zr295       O299   2.438   1_455  S
Zr295       O300   2.415       .  S
O296        C301   1.283       .  A
O297        H314   0.990       .  S
O297        H329   0.990       .  S
O298        H315   0.990       .  S
O299        H319   0.990       .  S
O299        H328   0.990   1_655  S
O300        C301   1.280       .  A
C301       C1245   1.479   1_455  S
O302        H321   0.990       .  S
O302        H325   0.990       .  S
O303        H317   0.990       .  S
O303        H324   0.990       .  S
O304        C308   1.289       .  A
O305        C308   1.282       .  A
O306        H316   0.990       .  S
O307        H320   0.990       .  S
C308       C1035   1.488       .  S
Zr331       O332   2.441       .  S
Zr331       O333   2.443       .  S
Zr331       O334   2.465       .  S
Zr331       O337   2.425       .  S
Zr331       O339   2.376       .  S
Zr331       O340   2.391       .  S
Zr331       O341   2.403       .  S
Zr331       O342   2.411       .  S
O332        H388   0.990       .  S
O332        H396   0.990       .  S
O333        C353   1.284       .  A
O334        C355   1.291       .  A
O335       Zr345   2.434       .  S
O335        C354   1.286       .  A
O336       Zr344   2.423       .  S
O336        C355   1.282       .  A
O337        C354   1.285       .  A
O338       Zr346   2.414       .  S
O338        C353   1.281       .  A
O339       Zr344   2.395       .  S
O339       Zr346   2.381       .  S
O340       Zr345   2.398       .  S
O340       Zr346   2.369       .  S
O340        H375   0.966       .  S
O341       Zr344   2.400       .  S
O341       Zr361   2.390       .  S
O341        H378   0.964       .  S
O342       Zr345   2.398       .  S
O342       Zr361   2.387       .  S
Zr343       O368   2.443       .  S
Zr343       O362   2.439       .  S
Zr343       O370   2.415       .  S
Zr343       O358   2.422       .  S
Zr343       O349   2.402       .  S
Zr343       O350   2.400       .  S
Zr343       O351   2.375       .  S
Zr343       O352   2.383       .  S
Zr344       O363   2.435       .  S
Zr344       O356   2.435   1_545  S
Zr344       O357   2.422   1_545  S
Zr344       O350   2.391       .  S
Zr344       O351   2.382       .  S
Zr345       O347   2.435       .  S
Zr345       O369   2.435       .  S
Zr345       O371   2.456       .  S
Zr345       O349   2.388       .  S
Zr345       O352   2.382       .  S
Zr346       O372   2.436       .  S
Zr346       O373   2.435       .  S
Zr346       O348   2.436       .  S
Zr346       O349   2.398       .  S
Zr346       O350   2.389       .  S
O347        H384   0.990       .  S
O348        H379   0.990       .  S
O348        H393   0.990       .  S
O350        H376   0.965       .  S
O351       Zr361   2.379       .  S
O352       Zr361   2.371       .  S
O352        H377   0.964       .  S
C353       C1133   1.488       .  S
C354       C1175   1.481       .  S
C355       C1004   1.499       .  S
O356        H392   0.990       .  S
O357        C359   1.285       .  A
O358        C359   1.282   1_545  A
C359       C1161   1.486       .  S
O360       Zr361   2.438       .  S
O360        H389   0.990       .  S
Zr361       O364   2.436       .  S
Zr361       O365   2.440   1_655  S
Zr361       O366   2.419       .  S
O362        C367   1.287   1_655  A
O363        H380   0.990       .  S
O363        H395   0.990       .  S
O364        H381   0.990       .  S
O365        H385   0.990       .  S
O365        H394   0.990   1_455  S
O366        C367   1.282   1_655  A
C367       C1119   1.484       .  S
O368        H387   0.990       .  S
O368        H391   0.990       .  S
O369        H383   0.990       .  S
O369        H390   0.990       .  S
O370        C374   1.281       .  A
O371        C374   1.291       .  A
O372        H382   0.990       .  S
O373        H386   0.990       .  S
C374       C1032   1.483       .  S
Zr397       O398   2.435       .  S
Zr397       O399   2.413       .  S
Zr397       O400   2.431       .  S
Zr397       O403   2.421       .  S
Zr397       O405   2.378       .  S
Zr397       O406   2.383       .  S
Zr397       O407   2.398       .  S
Zr397       O408   2.397       .  S
O398        H454   0.989       .  S
O398        H462   0.990       .  S
O399        C419   1.282       .  A
O400        C421   1.284       .  A
O401       Zr411   2.414       .  S
O401        C420   1.282       .  A
O402       Zr410   2.448       .  S
O402        C421   1.289       .  A
O403        C420   1.282       .  A
O404       Zr412   2.426       .  S
O404        C419   1.283       .  A
O405       Zr410   2.379       .  S
O405       Zr412   2.372       .  S
O406       Zr411   2.388       .  S
O406       Zr412   2.375       .  S
O406        H441   0.968       .  S
O407       Zr410   2.392       .  S
O407       Zr427   2.398       .  S
O407        H444   0.969       .  S
O408       Zr411   2.388       .  S
O408       Zr427   2.390       .  S
Zr409       O434   2.440       .  S
Zr409       O428   2.437       .  S
Zr409       O436   2.453       .  S
Zr409       O424   2.425       .  S
Zr409       O415   2.391       .  S
Zr409       O416   2.413       .  S
Zr409       O417   2.384       .  S
Zr409       O418   2.378       .  S
Zr410       O429   2.435       .  S
Zr410       O422   2.437       .  S
Zr410       O423   2.423       .  S
Zr410       O416   2.402       .  S
Zr410       O417   2.392       .  S
Zr411       O413   2.435       .  S
Zr411       O435   2.435       .  S
Zr411       O437   2.430       .  S
Zr411       O415   2.383       .  S
Zr411       O418   2.387       .  S
Zr412       O438   2.435       .  S
Zr412       O439   2.435       .  S
Zr412       O414   2.437       .  S
Zr412       O415   2.390       .  S
Zr412       O416   2.397       .  S
O413        H450   0.990       .  S
O414        H445   0.990       .  S
O414        H459   0.990       .  S
O416        H442   0.965       .  S
O417       Zr427   2.371       .  S
O418       Zr427   2.388       .  S
O418        H443   0.962       .  S
C419        C976   1.480       .  S
C420        C948   1.484   1_565  S
C421        C993   1.494       .  S
O422        H458   0.990       .  S
O423        C425   1.284       .  A
O424        C425   1.282       .  A
C425        C934   1.479       .  S
O426       Zr427   2.435       .  S
O426        H455   0.990       .  S
Zr427       O430   2.435       .  S
Zr427       O431   2.438       .  S
Zr427       O432   2.414       .  S
O428        C433   1.286       .  A
O429        H446   0.990       .  S
O429        H461   0.990       .  S
O430        H447   0.990       .  S
O431        H451   0.990       .  S
O431        H460   0.990       .  S
O432        C433   1.280       .  A
C433        C962   1.492       .  S
O434        H453   0.990       .  S
O434        H457   0.990       .  S
O435        H449   0.990       .  S
O435        H456   0.990       .  S
O436        C440   1.290       .  A
O437        C440   1.284       .  A
O438        H448   0.990       .  S
O439        H452   0.990       .  S
C440       C1217   1.503       .  S
Zr463       O464   2.438       .  S
Zr463       O465   2.427       .  S
Zr463       O466   2.456       .  S
Zr463       O469   2.434       .  S
Zr463       O471   2.375       .  S
Zr463       O472   2.384       .  S
Zr463       O473   2.394       .  S
Zr463       O474   2.402       .  S
O464        H520   0.990       .  S
O464        H528   0.990       .  S
O465        C485   1.284       .  A
O466        C487   1.290       .  A
O467       Zr477   2.419       .  S
O467        C486   1.282       .  A
O468       Zr476   2.421       .  S
O468        C487   1.282       .  A
O469        C486   1.288       .  A
O470       Zr478   2.408       .  S
O470        C485   1.280       .  A
O471       Zr476   2.386       .  S
O471       Zr478   2.375       .  S
O472       Zr477   2.388       .  S
O472       Zr478   2.374       .  S
O472        H507   0.966       .  S
O473       Zr476   2.393       .  S
O473       Zr493   2.397       .  S
O473        H510   0.965       .  S
O474       Zr477   2.394       .  S
O474       Zr493   2.389       .  S
Zr475       O500   2.439       .  S
Zr475       O494   2.429       .  S
Zr475       O502   2.448       .  S
Zr475       O490   2.428       .  S
Zr475       O481   2.394       .  S
Zr475       O482   2.407       .  S
Zr475       O483   2.382       .  S
Zr475       O484   2.380       .  S
Zr476       O495   2.436       .  S
Zr476       O488   2.434       .  S
Zr476       O489   2.404       .  S
Zr476       O482   2.403       .  S
Zr476       O483   2.396       .  S
Zr477       O479   2.434       .  S
Zr477       O501   2.441       .  S
Zr477       O503   2.435       .  S
Zr477       O481   2.384       .  S
Zr477       O484   2.385       .  S
Zr478       O504   2.437       .  S
Zr478       O505   2.434       .  S
Zr478       O480   2.436       .  S
Zr478       O481   2.387       .  S
Zr478       O482   2.388       .  S
O479        H516   0.990   1_655  S
O480        H511   0.990       .  S
O480        H525   0.990       .  S
O482        H508   0.965       .  S
O483       Zr493   2.379       .  S
O484       Zr493   2.388       .  S
O484        H509   0.967       .  S
C485        C909   1.473       .  S
C486        C881   1.490   1_655  S
C487        C990   1.496       .  S
O488        H524   0.990       .  S
O489        C491   1.279       .  A
O490        C491   1.282       .  A
C491        C895   1.470       .  S
O492       Zr493   2.438       .  S
O492        H521   0.991       .  S
Zr493       O496   2.439       .  S
Zr493       O497   2.440       .  S
Zr493       O498   2.408       .  S
O494        C499   1.283       .  A
O495        H512   0.990       .  S
O495        H527   0.990       .  S
O496        H513   0.990       .  S
O497        H517   0.990       .  S
O497        H526   0.990       .  S
O498        C499   1.278       .  A
C499        C923   1.479       .  S
O500        H519   0.991       .  S
O500        H523   0.990       .  S
O501        H515   0.990       .  S
O501        H522   0.990       .  S
O502        C506   1.286       .  A
O503        C506   1.286       .  A
O504        H514   0.990       .  S
O505        H518   0.990       .  S
C506       C1144   1.500       .  S
Zr529       O530   2.437       .  S
Zr529       O531   2.420       .  S
Zr529       O532   2.447       .  S
Zr529       O535   2.428       .  S
Zr529       O537   2.381       .  S
Zr529       O538   2.385       .  S
Zr529       O539   2.399       .  S
Zr529       O540   2.402       .  S
O530        H586   0.990       .  S
O530        H594   0.990       .  S
O531        C551   1.281   1_545  A
O532        C553   1.287       .  A
O533       Zr543   2.434       .  S
O533        C552   1.285       .  A
O534       Zr542   2.417       .  S
O534        C553   1.284       .  A
O535        C552   1.285       .  A
O536       Zr544   2.426   1_565  S
O536        C551   1.284       .  A
O537       Zr542   2.387       .  S
O537       Zr544   2.373       .  S
O538       Zr543   2.392       .  S
O538       Zr544   2.370       .  S
O538        H573   0.967       .  S
O539       Zr542   2.392       .  S
O539       Zr559   2.393       .  S
O539        H576   0.965       .  S
O540       Zr543   2.390       .  S
O540       Zr559   2.388       .  S
Zr541       O566   2.438       .  S
Zr541       O560   2.421       .  S
Zr541       O568   2.449       .  S
Zr541       O556   2.435       .  S
Zr541       O547   2.393       .  S
Zr541       O548   2.408       .  S
Zr541       O549   2.381       .  S
Zr541       O550   2.388       .  S
Zr542       O561   2.435       .  S
Zr542       O554   2.434       .  S
Zr542       O555   2.417       .  S
Zr542       O548   2.401       .  S
Zr542       O549   2.387       .  S
Zr543       O545   2.435       .  S
Zr543       O567   2.437       .  S
Zr543       O569   2.436       .  S
Zr543       O547   2.388       .  S
Zr543       O550   2.388       .  S
Zr544       O570   2.435       .  S
Zr544       O571   2.435       .  S
Zr544       O546   2.435   1_545  S
Zr544       O547   2.384       .  S
Zr544       O548   2.401       .  S
O545        H582   0.990       .  S
O546        H577   0.990       .  S
O546        H591   0.990       .  S
O548        H574   0.966       .  S
O549       Zr559   2.377       .  S
O550       Zr559   2.387       .  S
O550        H575   0.966       .  S
C551        C878   1.489       .  S
C552        C850   1.482       .  S
C553        C839   1.490   1_545  S
O554        H590   0.990   1_545  S
O555        C557   1.280       .  A
O556        C557   1.284       .  A
C557        C864   1.487       .  S
O558       Zr559   2.435       .  S
O558        H587   0.990       .  S
Zr559       O562   2.436       .  S
Zr559       O563   2.439       .  S
Zr559       O564   2.405       .  S
O560        C565   1.280       .  A
O561        H578   0.990       .  S
O561        H593   0.990       .  S
O562        H579   0.990       .  S
O563        H583   0.990       .  S
O563        H592   0.989       .  S
O564        C565   1.280       .  A
C565        C892   1.473       .  S
O566        H585   0.990       .  S
O566        H589   0.990       .  S
O567        H581   0.990       .  S
O567        H588   0.990       .  S
O568        C572   1.287       .  A
O569        C572   1.287       .  A
O570        H580   0.990   1_545  S
O571        H584   0.990       .  S
C572       C1091   1.502       .  S
Zr595       O596   2.439       .  S
Zr595       O597   2.419       .  S
Zr595       O598   2.426       .  S
Zr595       O601   2.419       .  S
Zr595       O603   2.376       .  S
Zr595       O604   2.380       .  S
Zr595       O605   2.397       .  S
Zr595       O606   2.400       .  S
O596        H652   0.990       .  S
O596        H660   0.990       .  S
O597        C617   1.283       .  A
O598        C619   1.284       .  A
O599       Zr609   2.424       .  S
O599        C618   1.284       .  A
O600       Zr608   2.435       .  S
O600        C619   1.285       .  A
O601        C618   1.282       .  A
O602       Zr610   2.425       .  S
O602        C617   1.282       .  A
O603       Zr608   2.389       .  S
O603       Zr610   2.374       .  S
O604       Zr609   2.384       .  S
O604       Zr610   2.374       .  S
O604        H639   0.966       .  S
O605       Zr608   2.393       .  S
O605       Zr625   2.399       .  S
O605        H642   0.966       .  S
O606       Zr609   2.387       .  S
O606       Zr625   2.391       .  S
Zr607       O632   2.438       .  S
Zr607       O626   2.431       .  S
Zr607       O634   2.437       .  S
Zr607       O622   2.439       .  S
Zr607       O613   2.396       .  S
Zr607       O614   2.407       .  S
Zr607       O615   2.381       .  S
Zr607       O616   2.382       .  S
Zr608       O627   2.435       .  S
Zr608       O620   2.435       .  S
Zr608       O621   2.423       .  S
Zr608       O614   2.397       .  S
Zr608       O615   2.390       .  S
Zr609       O611   2.435       .  S
Zr609       O633   2.437       .  S
Zr609       O635   2.426       .  S
Zr609       O613   2.388       .  S
Zr609       O616   2.386       .  S
Zr610       O636   2.435       .  S
Zr610       O637   2.435       .  S
Zr610       O612   2.436       .  S
Zr610       O613   2.390       .  S
Zr610       O614   2.399       .  S
O611        H648   0.990   1_455  S
O612        H643   0.990       .  S
O612        H657   0.990       .  S
O614        H640   0.966       .  S
O615       Zr625   2.376       .  S
O616       Zr625   2.382       .  S
O616        H641   0.967       .  S
C617        C822   1.489   1_565  S
C618        C979   1.479   1_455  S
C619        C836   1.491       .  S
O620        H656   0.990       .  S
O621        C623   1.285       .  A
O622        C623   1.284       .  A
C623        C965   1.494       .  S
O624       Zr625   2.436       .  S
O624        H653   0.990       .  S
Zr625       O628   2.435       .  S
Zr625       O629   2.438       .  S
Zr625       O630   2.419       .  S
O626        C631   1.284       .  A
O627        H644   0.990       .  S
O627        H659   0.990       .  S
O628        H645   0.990       .  S
O629        H649   0.990       .  S
O629        H658   0.990       .  S
O630        C631   1.281       .  A
C631        C808   1.474       .  S
O632        H651   0.990       .  S
O632        H655   0.990       .  S
O633        H647   0.990       .  S
O633        H654   0.990       .  S
O634        C638   1.287       .  A
O635        C638   1.283       .  A
O636        H646   0.990       .  S
O637        H650   0.990       .  S
C638       C1046   1.494       .  S
Zr661       O662   2.438       .  S
Zr661       O663   2.410       .  S
Zr661       O664   2.438       .  S
Zr661       O667   2.425       .  S
Zr661       O669   2.376       .  S
Zr661       O670   2.384       .  S
Zr661       O671   2.395       .  S
Zr661       O672   2.399       .  S
O662        H718   0.990       .  S
O662        H726   0.990       .  S
O663        C683   1.281       .  A
O664        C685   1.286       .  A
O665       Zr675   2.422       .  S
O665        C684   1.284       .  A
O666       Zr674   2.439       .  S
O666        C685   1.285       .  A
O667        C684   1.283       .  A
O668       Zr676   2.421       .  S
O668        C683   1.281       .  A
O669       Zr674   2.387       .  S
O669       Zr676   2.376       .  S
O670       Zr675   2.385       .  S
O670       Zr676   2.375       .  S
O670        H705   0.969       .  S
O671       Zr674   2.393       .  S
O671       Zr691   2.398       .  S
O671        H708   0.965       .  S
O672       Zr675   2.389       .  S
O672       Zr691   2.391       .  S
Zr673       O698   2.436       .  S
Zr673       O692   2.431       .  S
Zr673       O700   2.457       .  S
Zr673       O688   2.420       .  S
Zr673       O679   2.397       .  S
Zr673       O680   2.411       .  S
Zr673       O681   2.382       .  S
Zr673       O682   2.380       .  S
Zr674       O693   2.435       .  S
Zr674       O686   2.435       .  S
Zr674       O687   2.416       .  S
Zr674       O680   2.401       .  S
Zr674       O681   2.395       .  S
Zr675       O677   2.435       .  S
Zr675       O699   2.439       .  S
Zr675       O701   2.428       .  S
Zr675       O679   2.390       .  S
Zr675       O682   2.384       .  S
Zr676       O702   2.435       .  S
Zr676       O703   2.436       .  S
Zr676       O678   2.436       .  S
Zr676       O679   2.393       .  S
Zr676       O680   2.390       .  S
O677        H714   0.990       .  S
O678        H709   0.990   1_455  S
O678        H723   0.990   1_455  S
O680        H706   0.968       .  S
O681       Zr691   2.377       .  S
O682       Zr691   2.388       .  S
O682        H707   0.968       .  S
C683        C951   1.484   1_455  S
C684        C825   1.489       .  S
C685        C794   1.497       .  S
O686        H722   0.990       .  S
O687        C689   1.281       .  A
O688        C689   1.282       .  A
C689        C811   1.467       .  S
O690       Zr691   2.436       .  S
O690        H719   0.990       .  S
Zr691       O694   2.435       .  S
Zr691       O695   2.438       .  S
Zr691       O696   2.411       .  S
O692        C697   1.284       .  A
O693        H710   0.990       .  S
O693        H725   0.990       .  S
O694        H711   0.990       .  S
O695        H715   0.990       .  S
O695        H724   0.990       .  S
O696        C697   1.279       .  A
C697        C937   1.479       .  S
O698        H717   0.990       .  S
O698        H721   0.989       .  S
O699        H713   0.990       .  S
O699        H720   0.990       .  S
O700        C704   1.287       .  A
O701        C704   1.285       .  A
O702        H712   0.990       .  S
O703        H716   0.990       .  S
C704       C1021   1.501       .  S
Zr727       O728   2.438       .  S
Zr727       O729   2.411       .  S
Zr727       O730   2.456       .  S
Zr727       O733   2.427       .  S
Zr727       O735   2.378       .  S
Zr727       O736   2.388       .  S
Zr727       O737   2.396       .  S
Zr727       O738   2.400       .  S
O728        H784   0.990       .  S
O728        H792   0.990       .  S
O729        C749   1.280       .  A
O730        C751   1.288       .  A
O731       Zr741   2.434   1_565  S
O731        C750   1.285       .  A
O732       Zr740   2.429       .  S
O732        C751   1.286       .  A
O733        C750   1.285   1_545  A
O734       Zr742   2.428       .  S
O734        C749   1.283       .  A
O735       Zr740   2.383       .  S
O735       Zr742   2.373       .  S
O736       Zr741   2.393       .  S
O736       Zr742   2.374       .  S
O736        H771   0.967       .  S
O737       Zr740   2.394       .  S
O737       Zr757   2.394       .  S
O737        H774   0.969       .  S
O738       Zr741   2.395       .  S
O738       Zr757   2.387       .  S
Zr739       O764   2.432       .  S
Zr739       O758   2.433       .  S
Zr739       O766   2.441       .  S
Zr739       O754   2.429       .  S
Zr739       O745   2.394       .  S
Zr739       O746   2.412       .  S
Zr739       O747   2.380       .  S
Zr739       O748   2.382       .  S
Zr740       O759   2.437       .  S
Zr740       O752   2.436       .  S
Zr740       O753   2.418       .  S
Zr740       O746   2.400       .  S
Zr740       O747   2.391       .  S
Zr741       O743   2.435   1_545  S
Zr741       O765   2.436       .  S
Zr741       O767   2.444       .  S
Zr741       O745   2.384       .  S
Zr741       O748   2.390       .  S
Zr742       O768   2.437       .  S
Zr742       O769   2.435       .  S
Zr742       O744   2.437   1_655  S
Zr742       O745   2.389       .  S
Zr742       O746   2.403       .  S
O743        H780   0.990       .  S
O744        H775   0.990       .  S
O744        H789   0.990       .  S
O746        H772   0.969       .  S
O747       Zr757   2.375       .  S
O748       Zr757   2.389       .  S
O748        H773   0.969       .  S
C749        C853   1.476   1_655  S
C750        C906   1.484       .  S
C751        C797   1.501       .  S
O752        H788   0.990       .  S
O753        C755   1.283       .  A
O754        C755   1.280       .  A
C755        C920   1.480       .  S
O756       Zr757   2.436       .  S
O756        H785   0.990       .  S
Zr757       O760   2.436       .  S
Zr757       O761   2.437   1_545  S
Zr757       O762   2.410       .  S
O758        C763   1.283       .  A
O759        H776   0.990       .  S
O759        H791   0.990       .  S
O760        H777   0.990       .  S
O761        H781   0.990       .  S
O761        H790   0.990       .  S
O762        C763   1.281       .  A
C763        C867   1.485       .  S
O764        H783   0.990       .  S
O764        H787   0.989       .  S
O765        H779   0.990   1_545  S
O765        H786   0.990       .  S
O766        C770   1.284       .  A
O767        C770   1.289       .  A
O768        H778   0.990       .  S
O769        H782   0.990       .  S
C770       C1007   1.502       .  S
C793        C794   1.408       .  A
C793        C798   1.404   1_456  A
C793        H800   1.084       .  S
C794        C795   1.415       .  A
C795        C796   1.403   1_456  A
C795        N802   1.429       .  S
C796        C797   1.410       .  A
C796        H801   1.083       .  S
C797        C798   1.416       .  A
C798        N799   1.428       .  S
N799        O803   1.262       .  A
N799        O804   1.262   1_655  A
N802        O806   1.262       .  A
N802        O805   1.262   1_455  A
C807        C808   1.404       .  A
C807        C812   1.399       .  A
C807        H814   1.083       .  S
C808        C809   1.412       .  A
C809        C810   1.396       .  A
C809        N816   1.428       .  S
C810        C811   1.399       .  A
C810        H815   1.084       .  S
C811        C812   1.408       .  A
C812        N813   1.430       .  S
N813        O817   1.261       .  A
N813        O818   1.263       .  A
N816        O820   1.261       .  A
N816        O819   1.262       .  A
C821        C822   1.408       .  A
C821        C826   1.399       .  A
C821        H828   1.083   1_545  S
C822        C823   1.414       .  A
C823        C824   1.395       .  A
C823        N830   1.429       .  S
C824        C825   1.407       .  A
C824        H829   1.083       .  S
C825        C826   1.415       .  A
C826        N827   1.429       .  S
N827        O831   1.262       .  A
N827        O832   1.262       .  A
N830        O834   1.262       .  A
N830        O833   1.262       .  A
C835        C836   1.408       .  A
C835        C840   1.400   1_556  A
C835        H842   1.084       .  S
C836        C837   1.414       .  A
C837        C838   1.400   1_556  A
C837        N844   1.429       .  S
C838        C839   1.408       .  A
C838        H843   1.084       .  S
C839        C840   1.413       .  A
C840        N841   1.428   1_565  S
N841        O845   1.262       .  A
N841        O846   1.261       .  A
N844        O848   1.262   1_556  A
N844        O847   1.262       .  A
C849        C850   1.406       .  A
C849        C854   1.399       .  A
C849        H856   1.084       .  S
C850        C851   1.414       .  A
C851        C852   1.398       .  A
C851        N858   1.429       .  S
C852        C853   1.401       .  A
C852        H857   1.084       .  S
C853        C854   1.412       .  A
C854        N855   1.431       .  S
N855        O859   1.262   1_455  A
N855        O860   1.262   1_455  A
N858        O862   1.262       .  A
N858        O861   1.262       .  A
C863        C864   1.407       .  A
C863        C868   1.398       .  A
C863        H870   1.083       .  S
C864        C865   1.415       .  A
C865        C866   1.398       .  A
C865        N872   1.429       .  S
C866        C867   1.407       .  A
C866        H871   1.084       .  S
C867        C868   1.413       .  A
C868        N869   1.429       .  S
N869        O873   1.261       .  A
N869        O874   1.262       .  A
N872        O876   1.262       .  A
N872        O875   1.262       .  A
C877        C878   1.405       .  A
C877        C882   1.396       .  A
C877        H884   1.084       .  S
C878        C879   1.415       .  A
C879        C880   1.399       .  A
C879        N886   1.428       .  S
C880        C881   1.405       .  A
C880        H885   1.084       .  S
C881        C882   1.417       .  A
C882        N883   1.429       .  S
N883        O887   1.262       .  A
N883        O888   1.262       .  A
N886        O890   1.262       .  A
N886        O889   1.261       .  A
C891        C892   1.404       .  A
C891        C896   1.392       .  A
C891        H898   1.084       .  S
C892        C893   1.413       .  A
C893        C894   1.395       .  A
C893        N900   1.429       .  S
C894        C895   1.403       .  A
C894        H899   1.084       .  S
C895        C896   1.410       .  A
C896        N897   1.429       .  S
N897        O901   1.262       .  A
N897        O902   1.262       .  A
N900        O904   1.262       .  A
N900        O903   1.262       .  A
C905        C906   1.409       .  A
C905        C910   1.401       .  A
C905        H912   1.084       .  S
C906        C907   1.414       .  A
C907        C908   1.394       .  A
C907        N914   1.428       .  S
C908        C909   1.400       .  A
C908        H913   1.084       .  S
C909        C910   1.407       .  A
C910        N911   1.428       .  S
N911        O915   1.262       .  A
N911        O916   1.262       .  A
N914        O918   1.262       .  A
N914        O917   1.262       .  A
C919        C920   1.404       .  A
C919        C924   1.395       .  A
C919        H926   1.084       .  S
C920        C921   1.415       .  A
C921        C922   1.397       .  A
C921        N928   1.428       .  S
C922        C923   1.403       .  A
C922        H927   1.084       .  S
C923        C924   1.413       .  A
C924        N925   1.429       .  S
N925        O929   1.262       .  A
N925        O930   1.262       .  A
N928        O932   1.262       .  A
N928        O931   1.262       .  A
C933        C934   1.404       .  A
C933        C938   1.396       .  A
C933        H940   1.084       .  S
C934        C935   1.413       .  A
C935        C936   1.396       .  A
C935        N942   1.429       .  S
C936        C937   1.403       .  A
C936        H941   1.081       .  S
C937        C938   1.412       .  A
C938        N939   1.429       .  S
N939        O943   1.262       .  A
N939        O944   1.262       .  A
N942        O946   1.262       .  A
N942        O945   1.262       .  A
C947        C948   1.408       .  A
C947        C952   1.393       .  A
C947        H954   1.083       .  S
C948        C949   1.413       .  A
C949        C950   1.396       .  A
C949        N956   1.429   1_545  S
C950        C951   1.408       .  A
C950        H955   1.084       .  S
C951        C952   1.413       .  A
C952        N953   1.429       .  S
N953        O957   1.262       .  A
N953        O958   1.262       .  A
N956        O960   1.262       .  A
N956        O959   1.262       .  A
C961        C962   1.406       .  A
C961        C966   1.402       .  A
C961        H968   1.084       .  S
C962        C963   1.417       .  A
C963        C964   1.395       .  A
C963        N970   1.429       .  S
C964        C965   1.406       .  A
C964        H969   1.084       .  S
C965        C966   1.417       .  A
C966        N967   1.428       .  S
N967        O971   1.262       .  A
N967        O972   1.262       .  A
N970        O974   1.262       .  A
N970        O973   1.262       .  A
C975        C976   1.407       .  A
C975        C980   1.398       .  A
C975        H982   1.084       .  S
C976        C977   1.411       .  A
C977        C978   1.394       .  A
C977        N984   1.429       .  S
C978        C979   1.404       .  A
C978        H983   1.084       .  S
C979        C980   1.413       .  A
C980        N981   1.429   1_655  S
N981        O985   1.262       .  A
N981        O986   1.262       .  A
N984        O988   1.262       .  A
N984        O987   1.262       .  A
C989        C990   1.404       .  A
C989        C994   1.401   1_554  A
C989        H996   1.082       .  S
C990        C991   1.419       .  A
C991        C992   1.404   1_554  A
C991        N998   1.429       .  S
C992        C993   1.405       .  A
C992        H997   1.084       .  S
C993        C994   1.416       .  A
C994        N995   1.428       .  S
N995        O999   1.262   1_556  A
N995       O1000   1.262       .  A
N998       O1002   1.262   1_554  A
N998       O1001   1.262       .  A
C1003      C1004   1.405       .  A
C1003      C1008   1.403       .  A
C1003      H1010   1.083       .  S
C1004      C1005   1.418       .  A
C1005      C1006   1.402       .  A
C1005      N1012   1.428       .  S
C1006      C1007   1.406       .  A
C1006      H1011   1.084       .  S
C1007      C1008   1.420       .  A
C1008      N1009   1.427       .  S
N1009      O1013   1.262       .  A
N1009      O1014   1.262       .  A
N1012      O1016   1.261       .  A
N1012      O1015   1.262   1_545  A
C1017      C1018   1.408       .  A
C1017      C1022   1.403       .  A
C1017      H1024   1.083       .  S
C1018      C1019   1.417       .  A
C1019      C1020   1.402       .  A
C1019      N1026   1.428       .  S
C1020      C1021   1.408       .  A
C1020      H1025   1.084       .  S
C1021      C1022   1.417       .  A
C1022      N1023   1.427       .  S
N1023      O1027   1.262       .  A
N1023      O1028   1.262       .  A
N1026      O1030   1.262       .  A
N1026      O1029   1.262       .  A
C1031      C1032   1.401   1_455  A
C1031      C1036   1.399       .  A
C1031      H1038   1.084       .  S
C1032      C1033   1.415       .  A
C1033      C1034   1.400       .  A
C1033      N1040   1.429       .  S
C1034      C1035   1.404   1_655  A
C1034      H1039   1.084       .  S
C1035      C1036   1.417       .  A
C1036      N1037   1.429       .  S
N1037      O1041   1.262       .  A
N1037      O1042   1.262       .  A
N1040      O1044   1.262       .  A
N1040      O1043   1.262       .  A
C1045      C1046   1.406       .  A
C1045      C1050   1.401       .  A
C1045      H1052   1.083       .  S
C1046      C1047   1.416       .  A
C1047      C1048   1.399       .  A
C1047      N1054   1.429       .  S
C1048      C1049   1.408       .  A
C1048      H1053   1.084       .  S
C1049      C1050   1.417       .  A
C1050      N1051   1.427       .  S
N1051      O1055   1.262       .  A
N1051      O1056   1.262       .  A
N1054      O1058   1.262       .  A
N1054      O1057   1.262       .  A
C1059      C1060   1.403       .  A
C1059      C1064   1.393       .  A
C1059      H1066   1.084       .  S
C1060      C1061   1.411       .  A
C1061      C1062   1.402       .  A
C1061      N1068   1.428       .  S
C1062      C1063   1.407       .  A
C1062      H1067   1.084       .  S
C1063      C1064   1.416       .  A
C1064      N1065   1.430       .  S
N1065      O1069   1.262       .  A
N1065      O1070   1.262       .  A
N1068      O1072   1.262       .  A
N1068      O1071   1.262       .  A
C1073      C1074   1.403       .  A
C1073      C1078   1.397       .  A
C1073      H1080   1.084       .  S
C1074      C1075   1.412       .  A
C1075      C1076   1.401       .  A
C1075      N1082   1.429       .  S
C1076      C1077   1.406       .  A
C1076      H1081   1.084   1_545  S
C1077      C1078   1.413       .  A
C1078      N1079   1.429       .  S
N1079      O1083   1.262       .  A
N1079      O1084   1.262       .  A
N1082      O1086   1.262       .  A
N1082      O1085   1.262       .  A
C1087      C1088   1.407       .  A
C1087      C1092   1.404       .  A
C1087      H1094   1.083       .  S
C1088      C1089   1.416       .  A
C1089      C1090   1.402       .  A
C1089      N1096   1.429       .  S
C1090      C1091   1.408       .  A
C1090      H1095   1.083       .  S
C1091      C1092   1.418       .  A
C1092      N1093   1.428       .  S
N1093      O1097   1.262       .  A
N1093      O1098   1.262       .  A
N1096      O1100   1.262       .  A
N1096      O1099   1.262       .  A
C1101      C1102   1.408       .  A
C1101      C1106   1.404       .  A
C1101      H1108   1.083   1_565  S
C1102      C1103   1.420       .  A
C1103      C1104   1.406       .  A
C1103      N1110   1.429       .  S
C1104      C1105   1.408       .  A
C1104      H1109   1.084       .  S
C1105      C1106   1.418       .  A
C1106      N1107   1.428       .  S
N1107      O1111   1.262       .  A
N1107      O1112   1.262       .  A
N1110      O1114   1.262   1_565  A
N1110      O1113   1.262       .  A
C1115      C1116   1.403       .  A
C1115      C1120   1.397       .  A
C1115      H1122   1.084       .  S
C1116      C1117   1.414       .  A
C1117      C1118   1.402       .  A
C1117      N1124   1.430       .  S
C1118      C1119   1.405       .  A
C1118      H1123   1.082       .  S
C1119      C1120   1.413       .  A
C1120      N1121   1.429       .  S
N1121      O1125   1.262       .  A
N1121      O1126   1.262       .  A
N1124      O1128   1.262       .  A
N1124      O1127   1.262       .  A
C1129      C1130   1.408       .  A
C1129      C1134   1.402       .  A
C1129      H1136   1.084       .  S
C1130      C1131   1.413       .  A
C1131      C1132   1.398       .  A
C1131      N1138   1.429       .  S
C1132      C1133   1.407       .  A
C1132      H1137   1.084       .  S
C1133      C1134   1.412       .  A
C1134      N1135   1.429       .  S
N1135      O1139   1.262       .  A
N1135      O1140   1.262       .  A
N1138      O1142   1.262       .  A
N1138      O1141   1.262       .  A
C1143      C1144   1.408       .  A
C1143      C1148   1.403       .  A
C1143      H1150   1.084       .  S
C1144      C1145   1.417       .  A
C1145      C1146   1.402       .  A
C1145      N1152   1.427       .  S
C1146      C1147   1.406       .  A
C1146      H1151   1.083       .  S
C1147      C1148   1.416       .  A
C1148      N1149   1.429       .  S
N1149      O1153   1.262       .  A
N1149      O1154   1.262       .  A
N1152      O1156   1.262       .  A
N1152      O1155   1.262       .  A
C1157      C1158   1.406       .  A
C1157      C1162   1.397       .  A
C1157      H1164   1.084       .  S
C1158      C1159   1.415       .  A
C1159      C1160   1.393       .  A
C1159      N1166   1.429       .  S
C1160      C1161   1.406       .  A
C1160      H1165   1.084       .  S
C1161      C1162   1.415       .  A
C1162      N1163   1.429       .  S
N1163      O1167   1.262       .  A
N1163      O1168   1.261       .  A
N1166      O1170   1.262       .  A
N1166      O1169   1.262       .  A
C1171      C1172   1.406       .  A
C1171      C1176   1.399       .  A
C1171      H1178   1.084       .  S
C1172      C1173   1.413       .  A
C1173      C1174   1.399       .  A
C1173      N1180   1.429       .  S
C1174      C1175   1.405       .  A
C1174      H1179   1.084       .  S
C1175      C1176   1.411       .  A
C1176      N1177   1.429       .  S
N1177      O1181   1.262       .  A
N1177      O1182   1.262       .  A
N1180      O1184   1.262       .  A
N1180      O1183   1.262       .  A
C1185      C1186   1.406       .  A
C1185      C1190   1.393       .  A
C1185      H1192   1.084       .  S
C1186      C1187   1.414       .  A
C1187      C1188   1.395       .  A
C1187      N1194   1.429       .  S
C1188      C1189   1.405       .  A
C1188      H1193   1.083       .  S
C1189      C1190   1.412       .  A
C1190      N1191   1.429       .  S
N1191      O1195   1.262       .  A
N1191      O1196   1.262       .  A
N1194      O1198   1.262   1_455  A
N1194      O1197   1.262       .  A
C1199      C1200   1.408       .  A
C1199      C1204   1.402       .  A
C1199      H1206   1.083       .  S
C1200      C1201   1.412       .  A
C1201      C1202   1.398       .  A
C1201      N1208   1.429       .  S
C1202      C1203   1.408       .  A
C1202      H1207   1.084       .  S
C1203      C1204   1.415       .  A
C1204      N1205   1.429       .  S
N1205      O1209   1.262       .  A
N1205      O1210   1.262       .  A
N1208      O1212   1.262       .  A
N1208      O1211   1.262       .  A
C1213      C1214   1.407       .  A
C1213      C1218   1.401       .  A
C1213      H1220   1.084       .  S
C1214      C1215   1.419       .  A
C1215      C1216   1.407       .  A
C1215      N1222   1.428       .  S
C1216      C1217   1.407       .  A
C1216      H1221   1.083       .  S
C1217      C1218   1.419       .  A
C1218      N1219   1.428       .  S
N1219      O1223   1.262       .  A
N1219      O1224   1.262       .  A
N1222      O1226   1.262       .  A
N1222      O1225   1.262       .  A
C1227      C1228   1.404       .  A
C1227      C1232   1.396       .  A
C1227      H1234   1.084       .  S
C1228      C1229   1.414       .  A
C1229      C1230   1.396       .  A
C1229      N1236   1.429       .  S
C1230      C1231   1.405       .  A
C1230      H1235   1.084       .  S
C1231      C1232   1.416       .  A
C1232      N1233   1.427       .  S
N1233      O1237   1.261       .  A
N1233      O1238   1.262       .  A
N1236      O1240   1.262       .  A
N1236      O1239   1.262       .  A
C1241      C1242   1.405   1_545  A
C1241      C1246   1.394       .  A
C1241      H1248   1.084       .  S
C1242      C1243   1.415   1_565  A
C1243      C1244   1.396       .  A
C1243      N1250   1.429   1_545  S
C1244      C1245   1.404       .  A
C1244      H1249   1.084       .  S
C1245      C1246   1.413       .  A
C1246      N1247   1.429       .  S
N1247      O1251   1.262       .  A
N1247      O1252   1.262       .  A
N1250      O1254   1.261       .  A
N1250      O1253   1.261       .  A
C1255      C1256   1.402       .  A
C1255      C1260   1.401       .  A
C1255      H1262   1.080       .  S
C1256      C1257   1.415       .  A
C1257      C1258   1.397       .  A
C1257      N1264   1.428       .  S
C1258      C1259   1.402       .  A
C1258      H1263   1.084       .  S
C1259      C1260   1.417       .  A
C1260      N1261   1.430       .  S
N1261      O1265   1.262       .  A
N1261      O1266   1.262       .  A
N1264      O1268   1.262       .  A
N1264      O1267   1.262       .  A
C1269      C1270   1.402       .  A
C1269      C1274   1.397       .  A
C1269      H1276   1.084       .  S
C1270      C1271   1.415       .  A
C1271      C1272   1.400       .  A
C1271      N1278   1.425       .  S
C1272      C1273   1.401       .  A
C1272      H1277   1.084       .  S
C1273      C1274   1.416       .  A
C1274      N1275   1.429       .  S
N1275      O1279   1.262       .  A
N1275      O1280   1.262       .  A
N1278      O1282   1.261       .  A
N1278      O1281   1.262       .  A
C1283      C1284   1.409       .  A
C1283      C1288   1.404       .  A
C1283      H1290   1.084       .  S
C1284      C1285   1.417       .  A
C1285      C1286   1.402       .  A
C1285      N1292   1.428       .  S
C1286      C1287   1.406       .  A
C1286      H1291   1.084       .  S
C1287      C1288   1.417       .  A
C1288      N1289   1.430       .  S
N1289      O1293   1.262       .  A
N1289      O1294   1.262       .  A
N1292      O1296   1.262       .  A
N1292      O1295   1.262       .  A
