geometry optimzed in LAMMPS
_audit_creation_date              2020-12-01 
_audit_creation_method            'lammps2cif' 
_symmetry_space_group_name_H-M    'P1' 
_symmetry_Int_Tables_number       1 
_symmetry_cell_setting            triclinic 
loop_ 
_symmetry_equiv_pos_as_xyz 
  x,y,z 
_cell_length_a                    33.59042905 
_cell_length_b                    33.55098988321237 
_cell_length_c                    193.86843688003268 
_cell_angle_alpha                 89.80843764710771 
_cell_angle_beta                  90.24258525030896 
_cell_angle_gamma                 120.04937235753964 
loop_ 
_atom_site_label 
_atom_site_type_symbol 
_atom_site_fract_x 
_atom_site_fract_y 
_atom_site_fract_z 
_atom_site_charge 
O1          O  0.84264614  0.19325983  0.63720080    -0.81300
O2          O  0.78601650  0.13847403  0.60837619    -0.65900
O3          O  0.79720242  0.12832909  0.62762420    -1.12500
C4          C  0.94189125  0.14613308  0.62160875     1.05600
O5          O  0.80483843  0.08473855  0.60654422    -0.79200
O6          O  0.83567717  0.05263603  0.61700262    -0.66700
Ni7        Ni  0.78155994  0.16220534  0.63372488     1.34900
C8          C  0.83372830  0.04608043  0.62347600     0.84400
O9          O  0.72947936  0.12728073  0.61887732    -0.79700
O10         O  0.72013041  0.13248585  0.63023081    -0.90000
C11         C  0.78356551  0.10589120  0.60479237     0.83900
O12         O  0.79619880  0.21519985  0.62826524    -0.68200
O13         O  0.92176670  0.12745111  0.61591032    -0.87500
C14         C  0.81297461  0.22763795  0.62228639     0.84800
C15         C  0.70507506  0.12598053  0.62403238     1.06300
H16         H  0.87243460  0.17589884  0.61620881     0.38100
O17         O  0.85167879  0.14461074  0.61765682    -1.10100
O18         O  0.84191961  0.07754387  0.62787140    -0.66800
Ni19       Ni  0.86023027  0.14233913  0.62736097     1.26300
O20         O  0.81744086  0.20113040  0.61811756    -0.67000
O21         O  0.92298889  0.15654886  0.62646530    -0.79300
C22         C  0.85597157  0.17003323  0.64063862     0.84200
O23         O  0.86573396  0.14334978  0.63733043    -0.66500
Ni24       Ni  0.86266668  0.10728509  0.61156092     1.27400
Ni25       Ni  0.79072101  0.13522047  0.61807892     1.26100
H26         H  0.77785619  0.09614552  0.62876045     0.38700
O27         O  0.87126981  0.24173731  0.72761120    -0.81300
O28         O  0.82286431  0.20822464  0.69634540    -0.65900
O29         O  0.82686037  0.18831536  0.71575592    -1.12500
C30         C  0.96836252  0.19621827  0.70994301     1.05600
O31         O  0.83786817  0.15241579  0.69483388    -0.79200
O32         O  0.86427887  0.11242498  0.70412232    -0.66700
Ni33       Ni  0.81434039  0.22141360  0.72253230     1.34900
C34         C  0.85200571  0.10064825  0.71030776     0.84400
O35         O  0.76232702  0.19099774  0.70681708    -0.79700
O36         O  0.75637822  0.20401188  0.71809650    -0.90000
C37         C  0.82903645  0.18195557  0.69232730     0.83900
O38         O  0.84155241  0.27957266  0.71802780    -0.68200
O39         O  0.95183991  0.18533944  0.70384718    -0.87500
C40         C  0.85182914  0.29220513  0.71180465     0.84800
C41         C  0.74037754  0.19449936  0.71194414     1.06300
H42         H  0.90584274  0.23822315  0.70504635     0.38100
O43         O  0.88360945  0.20635219  0.70597692    -1.10100
O44         O  0.85919486  0.12951718  0.71505507    -0.66800
Ni45       Ni  0.88699709  0.19556989  0.71551698     1.26300
O46         O  0.84884779  0.26517035  0.70696995    -0.67000
O47         O  0.94738124  0.20248005  0.71493357    -0.79300
C48         C  0.89223884  0.21995337  0.72907635     0.84200
O49         O  0.88913688  0.18840662  0.72517113    -0.66500
Ni50       Ni  0.89448805  0.17021180  0.69951057     1.27400
Ni51       Ni  0.82325880  0.19931461  0.70617499     1.26100
H52         H  0.80472536  0.15625481  0.71656895     0.38700
O53         O  0.82496780  0.62012292  0.63864498    -0.81300
O54         O  0.86379795  0.61781444  0.60835972    -0.65900
O55         O  0.88219140  0.63828367  0.62765825    -1.12500
C56         C  0.86819904  0.76940081  0.62296009     1.05600
O57         O  0.91502587  0.69033561  0.60606199    -0.79200
O58         O  0.95488253  0.75073741  0.61658559    -0.66700
Ni59       Ni  0.85121674  0.58877735  0.63400319     1.34900
C60         C  0.96503718  0.75534143  0.62295929     0.84400
O61         O  0.87985961  0.57322943  0.61838442    -0.79700
O62         O  0.87504927  0.55407659  0.62960327    -0.90000
C63         C  0.89381711  0.64782934  0.60437989     0.83900
O64         O  0.79438954  0.55359115  0.62926578    -0.68200
O65         O  0.88325782  0.76746499  0.61697913    -0.87500
C66         C  0.77974912  0.55671403  0.62337416     0.84800
C67         C  0.88122618  0.54829676  0.62327729     1.06300
H68         H  0.83029749  0.66740869  0.61709673     0.38100
O69         O  0.86212528  0.67763519  0.61814776    -1.10100
O70         O  0.93552128  0.73313120  0.62764331    -0.66800
Ni71       Ni  0.87014941  0.68854860  0.62787497     1.26300
O72         O  0.80514550  0.58568910  0.61882426    -0.67000
O73         O  0.85796442  0.73866178  0.62760567    -0.79300
C74         C  0.84998012  0.65870847  0.64149229     0.84200
O75         O  0.87515056  0.69379672  0.63779260    -0.66500
Ni76       Ni  0.89754647  0.72644596  0.61189358     1.27400
Ni77       Ni  0.87111425  0.62569089  0.61810008     1.26100
H78         H  0.91469644  0.65044241  0.62842427     0.38700
O79         O  0.76103104  0.64484116  0.72813113    -0.81300
O80         O  0.81501447  0.63578023  0.69753619    -0.65900
O81         O  0.82141803  0.66035237  0.71685216    -1.12500
C82         C  0.81337004  0.79089380  0.71137390     1.05600
O83         O  0.84904719  0.70890445  0.69402771    -0.79200
O84         O  0.89573856  0.75633906  0.70529889    -0.66700
Ni85       Ni  0.78836554  0.61304152  0.72345421     1.34900
C86         C  0.90435706  0.76453652  0.71167789     0.84400
O87         O  0.83291945  0.59893859  0.70854250    -0.79700
O88         O  0.81341958  0.57746998  0.71956162    -0.90000
C89         C  0.83390699  0.66645729  0.69289915     0.83900
O90         O  0.73294538  0.57818697  0.71831135    -0.68200
O91         O  0.83779816  0.79177602  0.70632566    -0.87500
C92         C  0.72380898  0.57401700  0.71190706     0.84800
C93         C  0.82865947  0.57346314  0.71373170     1.06300
H94         H  0.77057902  0.68216292  0.70493139     0.38100
O95         O  0.80209243  0.69464181  0.70642027    -1.10100
O96         O  0.87240920  0.75284677  0.71612291    -0.66800
Ni97       Ni  0.80676481  0.70791047  0.71606677     1.26300
O98         O  0.75248750  0.59921416  0.70729683    -0.67000
O99         O  0.79122792  0.75531247  0.71508672    -0.79300
C100        C  0.77930400  0.68752783  0.72959478     0.84200
O101        O  0.80961862  0.71742776  0.72570993    -0.66500
Ni102      Ni  0.84142144  0.74629032  0.70069960     1.27400
Ni103      Ni  0.81709129  0.64622680  0.70727670     1.26100
H104        H  0.85342482  0.67368997  0.71812418     0.38700
O105        O  0.38272590  0.17698948  0.63855132    -0.81300
O106        O  0.39301411  0.22229902  0.60816133    -0.65900
O107        O  0.36738128  0.21572088  0.62727532    -1.12500
C108        C  0.24459215  0.06565457  0.62169791     1.05600
O109        O  0.31990526  0.19471878  0.60521153    -0.79200
O110        O  0.25484400  0.16719441  0.61513492    -0.66700
Ni111      Ni  0.41536980  0.23476437  0.63394474     1.34900
C112        C  0.25077644  0.17608840  0.62136494     0.84400
O113        O  0.43274213  0.28173496  0.61839129    -0.79700
O114        O  0.45086610  0.29385352  0.62965604    -0.90000
C115        C  0.36278307  0.22022938  0.60402148     0.83900
O116        O  0.45158545  0.21333327  0.62951112    -0.68200
O117        O  0.24771464  0.08218730  0.61563124    -0.87500
C118        C  0.45134183  0.19806953  0.62352993     0.84800
C119        C  0.45666311  0.30732399  0.62339301     1.06300
H120        H  0.34571482  0.13688820  0.61679444     0.38100
O121        O  0.33315429  0.15681803  0.61759136    -1.10100
O122        O  0.27322938  0.17153129  0.62632850    -0.66800
Ni123      Ni  0.31866886  0.15242820  0.62721177     1.26300
O124        O  0.42492395  0.19662048  0.61870551    -0.67000
O125        O  0.27067530  0.08894694  0.62671158    -0.79300
C126        C  0.34358034  0.16452355  0.64107142     0.84200
O127        O  0.30931130  0.15168493  0.63705184    -0.66500
Ni128      Ni  0.28598388  0.13960822  0.61083647     1.27400
Ni129      Ni  0.38254955  0.21936816  0.61781085     1.26100
H130        H  0.35400802  0.23507206  0.62795168     0.38700
O131        O  0.35940260  0.13634092  0.72846498    -0.81300
O132        O  0.36888583  0.19176232  0.69709934    -0.65900
O133        O  0.34498281  0.17835070  0.71653846    -1.12500
C134        C  0.21245721  0.03998154  0.71165274     1.05600
O135        O  0.29599453  0.15062216  0.69355195    -0.79200
O136        O  0.25058119  0.15608135  0.70469050    -0.66700
Ni137      Ni  0.39285365  0.19320902  0.72312823     1.34900
C138        C  0.24098124  0.15705368  0.71099953     0.84400
O139        O  0.40583055  0.24940884  0.70782415    -0.79700
O140        O  0.43087130  0.25203073  0.71867469    -0.90000
C141        C  0.33826791  0.17791495  0.69240334     0.83900
O142        O  0.42431535  0.16792138  0.71829800    -0.68200
O143        O  0.21229077  0.06288548  0.70645085    -0.87500
C144        C  0.42972636  0.16402843  0.71190715     0.84800
C145        C  0.43298483  0.27090882  0.71283972     1.06300
H146        H  0.32214951  0.10264845  0.70512001     0.38100
O147        O  0.30992117  0.12223597  0.70639334    -1.10100
O148        O  0.25256166  0.13785491  0.71567069    -0.66800
Ni149      Ni  0.29660581  0.11607777  0.71605237     1.26300
O150        O  0.40538346  0.16832975  0.70721915    -0.67000
O151        O  0.24816995  0.05320394  0.71534342    -0.79300
C152        C  0.31657450  0.11218517  0.72985120     0.84200
O153        O  0.28695016  0.11152670  0.72574137    -0.66500
Ni154      Ni  0.25838423  0.10910486  0.70056319     1.27400
Ni155      Ni  0.35853203  0.18586202  0.70690153     1.26100
H156        H  0.33224162  0.19771766  0.71766608     0.38700
O157        O  0.19258660  0.38471830  0.86143150    -0.81300
O158        O  0.23118274  0.38520237  0.89187902    -0.65900
O159        O  0.23082205  0.36663974  0.87254617    -1.12500
C160        C  0.08327980  0.23739385  0.87720746     1.05600
O161        O  0.21171476  0.31243648  0.89369505    -0.79200
O162        O  0.18442338  0.24927189  0.88349359    -0.66700
Ni163      Ni  0.24959216  0.41635930  0.86627626     1.34900
C164        C  0.19353558  0.24694883  0.87721273     0.84400
O165        O  0.29260606  0.43232175  0.88205456    -0.79700
O166        O  0.30764857  0.45119816  0.87088785    -0.90000
C167        C  0.23330236  0.35471441  0.89549253     0.83900
O168        O  0.22602571  0.45003104  0.87088417    -0.68200
O169        O  0.09907264  0.23978600  0.88331479    -0.87500
C170        C  0.20666246  0.44601660  0.87664343     0.84800
C171        C  0.31941887  0.45741736  0.87724409     1.06300
H172        H  0.14910370  0.33672007  0.88276735     0.38100
O173        O  0.17087889  0.32660181  0.88184658    -1.10100
O174        O  0.18993750  0.27158561  0.87249148    -0.66800
Ni175      Ni  0.16858345  0.31584365  0.87214425     1.26300
O176        O  0.20442274  0.41812173  0.88131057    -0.67000
O177        O  0.10599002  0.26558264  0.87234663    -0.79300
C178        C  0.17996923  0.34658333  0.85851524     0.84200
O179        O  0.16903780  0.31101205  0.86218423    -0.66500
Ni180      Ni  0.15607004  0.27811787  0.88819693     1.27400
Ni181      Ni  0.23150741  0.37895930  0.88211302     1.26100
H182        H  0.25145031  0.35477490  0.87186022     0.38700
O183        O  0.13708598  0.36366409  0.77063326    -0.81300
O184        O  0.17065784  0.37983686  0.80238604    -0.65900
O185        O  0.17037752  0.34997994  0.78340342    -1.12500
C186        C  0.02986851  0.22023997  0.78708512     1.05600
O187        O  0.12890388  0.30751393  0.80621647    -0.79200
O188        O  0.14216987  0.26102119  0.79586884    -0.66700
Ni189      Ni  0.19198832  0.39553052  0.77635250     1.34900
C190        C  0.14603579  0.24937419  0.78978497     0.84400
O191        O  0.23508979  0.41349753  0.79258876    -0.79700
O192        O  0.24908822  0.43098842  0.78130974    -0.90000
C193        C  0.15494974  0.35032984  0.80722283     0.83900
O194        O  0.16952037  0.43312983  0.78004468    -0.68200
O195        O  0.05010807  0.22054923  0.79265514    -0.87500
C196        C  0.15703968  0.43820718  0.78600298     0.84800
C197        C  0.26178888  0.43650836  0.78763705     1.06300
H198        H  0.08748614  0.33026978  0.79336381     0.38100
O199        O  0.10783457  0.31807104  0.79268183    -1.10100
O200        O  0.12756505  0.25792795  0.78466201    -0.66800
Ni201      Ni  0.10773187  0.30282447  0.78319863     1.26300
O202        O  0.15396620  0.41283989  0.79112082    -0.67000
O203        O  0.04461206  0.25549226  0.78325874    -0.79300
C204        C  0.11241429  0.32076262  0.76931228     0.84200
O205        O  0.10907255  0.29130869  0.77367720    -0.66500
Ni206      Ni  0.09201951  0.26788321  0.79890725     1.27400
Ni207      Ni  0.17131497  0.36656185  0.79280125     1.26100
H208        H  0.18959094  0.33620937  0.78309169     0.38700
O209        O  0.62904038  0.82481175  0.86234364    -0.81300
O210        O  0.62984741  0.86985412  0.89247388    -0.65900
O211        O  0.64915200  0.88505585  0.87317418    -1.12500
C212        C  0.77871363  0.86942735  0.87859727     1.05600
O213        O  0.70175341  0.92516593  0.89433373    -0.79200
O214        O  0.76357336  0.96092171  0.88385361    -0.66700
Ni215      Ni  0.59922007  0.85318597  0.86693118     1.34900
C216        C  0.76762211  0.96855855  0.87740763     0.84400
O217        O  0.58264681  0.88167756  0.88242218    -0.79700
O218        O  0.56506340  0.87845467  0.87116919    -0.90000
C219        C  0.65948726  0.90266938  0.89611373     0.83900
O220        O  0.56435967  0.79743913  0.87196683    -0.68200
O221        O  0.77766432  0.88734055  0.88438330    -0.87500
C222        C  0.56860317  0.78312310  0.87783470     0.84800
C223        C  0.55766581  0.88260658  0.87750686     1.06300
H224        H  0.67953713  0.83644201  0.88418622     0.38100
O225        O  0.68913284  0.86772682  0.88289766    -1.10100
O226        O  0.74456713  0.93755448  0.87292905    -0.66800
Ni227      Ni  0.69905937  0.87235993  0.87319345     1.26300
O228        O  0.59806227  0.80916296  0.88228525    -0.67000
O229        O  0.74857353  0.85913485  0.87382707    -0.79300
C230        C  0.66861586  0.84628751  0.85964053     0.84200
O231        O  0.70334146  0.87357183  0.86327002    -0.66500
Ni232      Ni  0.73779431  0.90510451  0.88902188     1.27400
Ni233      Ni  0.63663035  0.87537891  0.88276672     1.26100
H234        H  0.66156707  0.91751529  0.87229303     0.38700
O235        O  0.63281953  0.77331224  0.77302882    -0.81300
O236        O  0.62066741  0.80636284  0.80379299    -0.65900
O237        O  0.65036298  0.82991027  0.78467039    -1.12500
C238        C  0.77876495  0.81791135  0.79069876     1.05600
O239        O  0.69148109  0.86189961  0.80592440    -0.79200
O240        O  0.75239428  0.90355709  0.79591402    -0.66700
Ni241      Ni  0.60566643  0.80515380  0.77760684     1.34900
C242        C  0.75885314  0.91171625  0.78951558     0.84400
O243        O  0.58185746  0.82817268  0.79314228    -0.79700
O244        O  0.57529608  0.83500184  0.78166203    -0.90000
C245        C  0.65192985  0.83216196  0.80804405     0.83900
O246        O  0.56354039  0.74920065  0.78206582    -0.68200
O247        O  0.77618231  0.83671737  0.79627750    -0.87500
C248        C  0.56179712  0.73062516  0.78785964     0.84800
C249        C  0.56424336  0.83700178  0.78790383     1.06300
H250        H  0.67414029  0.77659813  0.79599873     0.38100
O251        O  0.68434987  0.80806834  0.79467978    -1.10100
O252        O  0.74275023  0.87991626  0.78502644    -0.66800
Ni253      Ni  0.69815432  0.81500586  0.78511018     1.26300
O254        O  0.59088564  0.75167268  0.79268520    -0.67000
O255        O  0.74729864  0.80201037  0.78609005    -0.79300
C256        C  0.67485531  0.78866869  0.77152398     0.84200
O257        O  0.70654592  0.81767102  0.77540315    -0.66500
Ni258      Ni  0.73182578  0.84766594  0.80086666     1.27400
Ni259      Ni  0.63265467  0.81718223  0.79407670     1.26100
H260        H  0.66429485  0.86285912  0.78415021     0.38700
O261        O  0.19116859  0.82672316  0.86357795    -0.81300
O262        O  0.14599927  0.77800858  0.89326161    -0.65900
O263        O  0.12999716  0.78588919  0.87406095    -1.12500
C264        C  0.15893654  0.93571137  0.87988823     1.05600
O265        O  0.09517077  0.80014143  0.89542535    -0.79200
O266        O  0.06298993  0.83408724  0.88536107    -0.66700
Ni267      Ni  0.16000729  0.76707713  0.86768973     1.34900
C268        C  0.05309284  0.82880627  0.87897649     0.84400
O269        O  0.12915780  0.71894812  0.88295374    -0.79700
O270        O  0.13133811  0.70655869  0.87162655    -0.90000
C271        C  0.11450894  0.77668918  0.89698151     0.83900
O272        O  0.21523011  0.78321540  0.87263567    -0.68200
O273        O  0.14252259  0.91784878  0.88581959    -0.87500
C274        C  0.23019549  0.80045904  0.87853701     0.84800
C275        C  0.12648944  0.69327858  0.87790645     1.06300
H276        H  0.18404228  0.86301016  0.88496574     0.38100
O277        O  0.15195898  0.84298692  0.88384954    -1.10100
O278        O  0.08167774  0.83304492  0.87430209    -0.66800
Ni279      Ni  0.14601538  0.84947221  0.87418977     1.26300
O280        O  0.20546978  0.80532383  0.88301363    -0.67000
O281        O  0.16289726  0.91309514  0.87489458    -0.79300
C282        C  0.17035733  0.84485114  0.86066721     0.84200
O283        O  0.14371548  0.85337087  0.86424108    -0.66500
Ni284      Ni  0.11961521  0.85822046  0.89030165     1.27400
Ni285      Ni  0.13992950  0.78109948  0.88357476     1.26100
H286        H  0.09736562  0.76718030  0.87319547     0.38700
O287        O  0.22557481  0.87369469  0.77306217    -0.81300
O288        O  0.20265454  0.83168415  0.80448373    -0.65900
O289        O  0.17401782  0.83640658  0.78539071    -1.12500
C290        C  0.18916180  0.97798678  0.79134429     1.05600
O291        O  0.14868957  0.84852766  0.80701848    -0.79200
O292        O  0.10434982  0.86400497  0.79703064    -0.66700
Ni293      Ni  0.19651751  0.81572808  0.77810648     1.34900
C294        C  0.09425173  0.86356721  0.79072310     0.84400
O295        O  0.17867230  0.76978631  0.79391177    -0.79700
O296        O  0.17007084  0.75611887  0.78246427    -0.90000
C297        C  0.17813770  0.83764793  0.80891468     0.83900
O298        O  0.25422586  0.83236172  0.78212040    -0.68200
O299        O  0.16982762  0.95616602  0.79688503    -0.87500
C300        C  0.27414645  0.84892754  0.78783600     0.84800
C301        C  0.16986320  0.74326012  0.78869431     1.06300
H302        H  0.23063664  0.91426412  0.79650627     0.38100
O303        O  0.19891542  0.89297995  0.79533176    -1.10100
O304        O  0.12504368  0.88047499  0.78609779    -0.66800
Ni305      Ni  0.18985105  0.89959839  0.78580372     1.26300
O306        O  0.25436959  0.85581270  0.79294263    -0.67000
O307        O  0.20466473  0.96218788  0.78676562    -0.79300
C308        C  0.21253521  0.90287918  0.77199400     0.84200
O309        O  0.18495586  0.90571405  0.77612757    -0.66500
Ni310      Ni  0.16088974  0.90170105  0.80166625     1.27400
Ni311      Ni  0.18941949  0.83194841  0.79477070     1.26100
H312        H  0.14096078  0.81768198  0.78506636     0.38700
O313        O  0.53173512  0.47038508  0.52840137    -0.81300
O314        O  0.49359941  0.42792224  0.55850044    -0.65900
O315        O  0.47475009  0.43094442  0.53927487    -1.12500
C316        C  0.50067481  0.58127902  0.54437029     1.05600
O317        O  0.44477801  0.45218358  0.56077746    -0.79200
O318        O  0.41029897  0.48323658  0.55075056    -0.66700
Ni319      Ni  0.50523461  0.41213791  0.53294028     1.34900
C320        C  0.39694289  0.47275471  0.54454828     0.84400
O321        O  0.47426504  0.36631108  0.54852273    -0.79700
O322        O  0.48077969  0.35307218  0.53731913    -0.90000
C323        C  0.46491387  0.42990549  0.56248653     0.83900
O324        O  0.56214783  0.43294227  0.53764236    -0.68200
O325        O  0.48930262  0.56578200  0.55052489    -0.87500
C326        C  0.57647366  0.44952592  0.54359233     0.84800
C327        C  0.47330303  0.34033511  0.54362702     1.06300
H328        H  0.53045209  0.51107790  0.54954472     0.38100
O329        O  0.49802168  0.49075476  0.54871972    -1.10100
O330        O  0.42332008  0.47433945  0.53968996    -0.66800
Ni331      Ni  0.48836011  0.49400429  0.53906218     1.26300
O332        O  0.55096038  0.45208226  0.54816733    -0.67000
O333        O  0.50239234  0.55730385  0.53936830    -0.79300
C334        C  0.50627016  0.48304408  0.52543396     0.84200
O335        O  0.48188365  0.49393982  0.52912827    -0.66500
Ni336      Ni  0.46811333  0.50819405  0.55530269     1.27400
Ni337      Ni  0.48576929  0.42865673  0.54881040     1.26100
H338        H  0.44216363  0.41109893  0.53849872     0.38700
O339        O  0.58761781  0.53895147  0.43862194    -0.81300
O340        O  0.54146883  0.47647362  0.46936683    -0.65900
O341        O  0.53013238  0.48909704  0.44986825    -1.12500
C342        C  0.53341740  0.62698586  0.45678231     1.05600
O343        O  0.48514948  0.49049182  0.47077767    -0.79200
O344        O  0.44926325  0.52146625  0.46140545    -0.66700
Ni345      Ni  0.56696800  0.48043796  0.44330601     1.34900
C346        C  0.43880788  0.51010578  0.45514840     0.84400
O347        O  0.52934935  0.42130307  0.45843871    -0.79700
O348        O  0.54930192  0.42108063  0.44733259    -0.90000
C349        C  0.51306796  0.47949893  0.47333169     0.83900
O350        O  0.62310262  0.50722187  0.44837044    -0.68200
O351        O  0.52252905  0.60813215  0.46272808    -0.87500
C352        C  0.63269972  0.51357491  0.45475063     0.84800
C353        C  0.53643146  0.40215160  0.45327426     1.06300
H354        H  0.57473560  0.56324477  0.46129445     0.38100
O355        O  0.54326329  0.54121976  0.46010194    -1.10100
O356        O  0.46879504  0.51842432  0.45052469    -0.66800
Ni357      Ni  0.53531889  0.54834394  0.45052404     1.26300
O358        O  0.60314398  0.50706317  0.45938214    -0.67000
O359        O  0.53970126  0.60753218  0.45158213    -0.79300
C360        C  0.56525267  0.55926085  0.43708283     0.84200
O361        O  0.53222493  0.55479926  0.44078453    -0.66500
Ni362      Ni  0.50518237  0.54908314  0.46653150     1.27400
Ni363      Ni  0.53699534  0.48145699  0.45949872     1.26100
H364        H  0.49876480  0.46678331  0.44867758     0.38700
O365        O  0.52776374  0.03260585  0.52953144    -0.81300
O366        O  0.57382584  0.02944625  0.55947506    -0.65900
O367        O  0.56871036  0.01172520  0.54012646    -1.12500
C368        C  0.42164969  0.88384506  0.54496515     1.05600
O369        O  0.55076046  0.95614272  0.56155154    -0.79200
O370        O  0.52573845  0.89577467  0.55084309    -0.66700
Ni371      Ni  0.58622479  0.06261573  0.53406594     1.34900
C372        C  0.53036148  0.89196222  0.54442164     0.84400
O373        O  0.63431653  0.07368129  0.54946289    -0.79700
O374        O  0.64556781  0.09562395  0.53833025    -0.90000
C375        C  0.57206992  0.99836181  0.56338343     0.83900
O376        O  0.56604806  0.09750961  0.53920447    -0.68200
O377        O  0.43943017  0.88440672  0.55085004    -0.87500
C378        C  0.54993961  0.09348814  0.54521847     0.84800
C379        C  0.65971653  0.09897451  0.54453793     1.06300
H380        H  0.48971382  0.98328550  0.55088301     0.38100
O381        O  0.51041292  0.97222543  0.54970542    -1.10100
O382        O  0.52482871  0.91643349  0.53988669    -0.66800
Ni383      Ni  0.50603148  0.96254707  0.53994171     1.26300
O384        O  0.54778414  0.06410482  0.54956455    -0.67000
O385        O  0.44308326  0.91360767  0.54023727    -0.79300
C386        C  0.51376158  0.99457589  0.52648180     0.84200
O387        O  0.50479181  0.95890239  0.52999142    -0.66500
Ni388      Ni  0.49607120  0.92245089  0.55581470     1.27400
Ni389      Ni  0.57206705  0.02273107  0.54975426     1.26100
H390        H  0.58844787  0.99924080  0.53910941     0.38700
O391        O  0.47235166  0.01269247  0.43888364    -0.81300
O392        O  0.51283810  0.02895747  0.47028103    -0.65900
O393        O  0.50708243  0.99577915  0.45126770    -1.12500
C394        C  0.35724413  0.87694850  0.45694626     1.05600
O395        O  0.48568399  0.95609156  0.47300671    -0.79200
O396        O  0.46184976  0.89113078  0.46357018    -0.66700
Ni397      Ni  0.52994772  0.04036262  0.44408378     1.34900
C398        C  0.46769464  0.88452103  0.45731976     0.84400
O399        O  0.57613087  0.06183181  0.45998759    -0.79700
O400        O  0.58946159  0.07180879  0.44857802    -0.90000
C401        C  0.50051493  0.99743639  0.47480017     0.83900
O402        O  0.51505542  0.08311721  0.44803151    -0.68200
O403        O  0.37476379  0.87943245  0.46289607    -0.87500
C404        C  0.50085502  0.08761720  0.45388012     0.84800
C405        C  0.60313598  0.08077714  0.45486112     1.06300
H406        H  0.42946909  0.98110849  0.46174806     0.38100
O407        O  0.44827848  0.96726986  0.46094952    -1.10100
O408        O  0.45869366  0.90315246  0.45230483    -0.66800
Ni409      Ni  0.44290663  0.95080701  0.45146253     1.26300
O410        O  0.49390499  0.06035441  0.45890442    -0.67000
O411        O  0.37876124  0.90501430  0.45204673    -0.79300
C412        C  0.44380267  0.97036805  0.43766205     0.84200
O413        O  0.43953001  0.93947724  0.44185162    -0.66500
Ni414      Ni  0.43124891  0.91985680  0.46765647     1.27400
Ni415      Ni  0.51188687  0.01477761  0.46064219     1.26100
H416        H  0.52438125  0.97996452  0.45091832     0.38700
O417        O  0.97065814  0.46328064  0.52990996    -0.81300
O418        O  0.97127393  0.50604254  0.55976234    -0.65900
O419        O  0.98937770  0.52246634  0.54048016    -1.12500
C420        C  0.11846084  0.50428235  0.54506140     1.05600
O421        O  0.04430555  0.55712686  0.56190122    -0.79200
O422        O  0.10580645  0.59401710  0.55136335    -0.66700
Ni423      Ni  0.93929673  0.49015462  0.53431351     1.34900
C424        C  0.10910475  0.60464454  0.54501137     0.84400
O425        O  0.92503038  0.52029749  0.54985987    -0.79700
O426        O  0.90502199  0.51459642  0.53866040    -0.90000
C427        C  0.00175006  0.53723932  0.56353788     0.83900
O428        O  0.90439040  0.43393202  0.53918894    -0.68200
O429        O  0.11720552  0.51910955  0.55110304    -0.87500
C430        C  0.90794402  0.41988478  0.54509861     0.84800
C431        C  0.89911003  0.52022068  0.54501494     1.06300
H432        H  0.01892148  0.47070107  0.55088004     0.38100
O433        O  0.02943914  0.50268454  0.54987618    -1.10100
O434        O  0.08463265  0.57579639  0.54035554    -0.66800
Ni435      Ni  0.03954851  0.51036785  0.54013387     1.26300
O436        O  0.93763436  0.44580699  0.54953482    -0.67000
O437        O  0.08906948  0.49716289  0.54031275    -0.79300
C438        C  0.00755728  0.48856275  0.52669612     0.84200
O439        O  0.04352885  0.51502893  0.53015811    -0.66500
Ni440      Ni  0.07854522  0.53676353  0.55614243     1.27400
Ni441      Ni  0.97774438  0.51199012  0.55004309     1.26100
H442        H  0.00129745  0.55490161  0.53964935     0.38700
O443        O  0.98627641  0.42596727  0.43879544    -0.81300
O444        O  0.96713712  0.44932875  0.47039134    -0.65900
O445        O  0.99735921  0.47496485  0.45129608    -1.12500
C446        C  0.12727515  0.46328004  0.45544943     1.05600
O447        O  0.03837410  0.47364460  0.47439978    -0.79200
O448        O  0.08997021  0.53564015  0.46444826    -0.66700
Ni449      Ni  0.95293853  0.44919342  0.44410932     1.34900
C450        C  0.10099697  0.55188465  0.45837771     0.84400
O451        O  0.93276795  0.47733382  0.46004790    -0.79700
O452        O  0.91636298  0.47077937  0.44865787    -0.90000
C453        C  0.99604259  0.45993539  0.47530205     0.83900
O454        O  0.91534704  0.38968749  0.44803042    -0.68200
O455        O  0.12647115  0.48126269  0.46116622    -0.87500
C456        C  0.90907723  0.37325436  0.45410228     0.84800
C457        C  0.91022279  0.47967706  0.45485266     1.06300
H458        H  0.01566547  0.41227931  0.46139696     0.38100
O459        O  0.02867640  0.44508183  0.46081154    -1.10100
O460        O  0.08959025  0.52597346  0.45304514    -0.66800
Ni461      Ni  0.04527363  0.46083542  0.45136547     1.26300
O462        O  0.93354217  0.39630208  0.45926057    -0.67000
O463        O  0.09261122  0.44499842  0.45149557    -0.79300
C464        C  0.02937113  0.44592745  0.43758971     0.84200
O465        O  0.05778221  0.47429562  0.44187258    -0.66500
Ni466      Ni  0.07856653  0.47637533  0.46723416     1.27400
Ni467      Ni  0.98017515  0.46063918  0.46069815     1.26100
H468        H  0.01064452  0.50779843  0.45082575     0.38700
O469        O  0.14278471  0.29590889  0.30568401    -0.81300
O470        O  0.19319914  0.28017041  0.27538087    -0.65900
O471        O  0.19928806  0.30543068  0.29456569    -1.12500
C472        C  0.17371050  0.42665359  0.28704262     1.05600
O473        O  0.23723407  0.35356451  0.27247416    -0.79200
O474        O  0.26532212  0.42232679  0.28182007    -0.66700
Ni475      Ni  0.16096631  0.25764228  0.30086407     1.34900
C476        C  0.27921381  0.42510502  0.28799332     0.84400
O477        O  0.20730471  0.24196338  0.28633835    -0.79700
O478        O  0.17551996  0.21427863  0.29668158    -0.90000
C479        C  0.22205044  0.31091101  0.27139197     0.83900
O480        O  0.10548824  0.23456644  0.29574199    -0.68200
O481        O  0.18299098  0.41903875  0.28096682    -0.87500
C482        C  0.09744432  0.22959436  0.28932869     0.84800
C483        C  0.19445815  0.21198728  0.29111505     1.06300
H484        H  0.14738443  0.32512308  0.28318692     0.38100
O485        O  0.17992018  0.33880633  0.28410632    -1.10100
O486        O  0.25374745  0.39938551  0.29287144    -0.66800
Ni487      Ni  0.18834147  0.35593630  0.29362658     1.26300
O488        O  0.12892231  0.24608661  0.28479400    -0.67000
O489        O  0.17576942  0.40553717  0.29240931    -0.79300
C490        C  0.16883061  0.33706290  0.30762944     0.84200
O491        O  0.19513707  0.36796708  0.30338123    -0.66500
Ni492      Ni  0.20892578  0.38427575  0.27711366     1.27400
Ni493      Ni  0.19415432  0.29051992  0.28501751     1.26100
H494        H  0.23082660  0.31694799  0.29596827     0.38700
O495        O  0.12264230  0.30178571  0.39509937    -0.81300
O496        O  0.14262748  0.29026848  0.36315675    -0.65900
O497        O  0.16974282  0.31612827  0.38242608    -1.12500
C498        C  0.14172865  0.43969117  0.37739551     1.05600
O499        O  0.19192575  0.36340169  0.36162247    -0.79200
O500        O  0.22877933  0.43250066  0.37055882    -0.66700
Ni501      Ni  0.14556073  0.27014887  0.38937331     1.34900
C502        C  0.24465784  0.43344805  0.37653290     0.84400
O503        O  0.17071452  0.25188239  0.37310561    -0.79700
O504        O  0.16722102  0.23483206  0.38443117    -0.90000
C505        C  0.16440601  0.32430987  0.35911071     0.83900
O506        O  0.08591742  0.23361993  0.38548121    -0.68200
O507        O  0.14893816  0.43446691  0.37109130    -0.87500
C508        C  0.06869816  0.22915427  0.37948841     0.84800
C509        C  0.17484772  0.22935035  0.37814197     1.06300
H510        H  0.10822994  0.33615924  0.37260549     0.38100
O511        O  0.14104531  0.34931056  0.37315332    -1.10100
O512        O  0.21997375  0.40834391  0.38146829    -0.66800
Ni513      Ni  0.15527491  0.36461999  0.38259060     1.26300
O514        O  0.09115203  0.25446771  0.37438246    -0.67000
O515        O  0.14157887  0.41409799  0.38231681    -0.79300
C516        C  0.14131241  0.34450178  0.39658359     0.84200
O517        O  0.16608817  0.37503707  0.39222031    -0.66500
Ni518      Ni  0.16942611  0.39734186  0.36648716     1.27400
Ni519      Ni  0.15520664  0.30024872  0.37292168     1.26100
H520        H  0.20262830  0.32963217  0.38283353     0.38700
O521        O  0.13877047  0.84185821  0.30443032    -0.81300
O522        O  0.10841125  0.80925769  0.27362020    -0.65900
O523        O  0.10725261  0.78650075  0.29282690    -1.12500
C524        C  0.25672826  0.81104669  0.28843977     1.05600
O525        O  0.12982278  0.75786224  0.27154976    -0.79200
O526        O  0.15404928  0.72046418  0.28198961    -0.66700
Ni527      Ni  0.08298435  0.81176662  0.29915379     1.34900
C528        C  0.14828439  0.70976435  0.28833967     0.84400
O529        O  0.04481055  0.78915891  0.28320091    -0.79700
O530        O  0.02523105  0.78405352  0.29431981    -0.90000
C531        C  0.10867834  0.77901713  0.26975414     0.83900
O532        O  0.10145925  0.86902718  0.29464593    -0.68200
O533        O  0.24019752  0.79566751  0.28243491    -0.87500
C534        C  0.12211553  0.88704718  0.28904104     0.84800
C535        C  0.01591897  0.78313413  0.28790981     1.06300
H536        H  0.18911138  0.84323077  0.28262121     0.38100
O537        O  0.16835582  0.81104420  0.28359446    -1.10100
O538        O  0.15385172  0.73839524  0.29307804    -0.66800
Ni539      Ni  0.17089908  0.80290446  0.29329420     1.26300
O540        O  0.13045259  0.86494526  0.28449118    -0.67000
O541        O  0.23478693  0.81901159  0.29313048    -0.79300
C542        C  0.16146977  0.82423127  0.30692068     0.84200
O543        O  0.17122111  0.79889206  0.30323170    -0.66500
Ni544      Ni  0.18417324  0.77805078  0.27732989     1.27400
Ni545      Ni  0.10681262  0.79968662  0.28329965     1.26100
H546        H  0.08865284  0.75348981  0.29333183     0.38700
O547        O  0.20782379  0.88336605  0.39457739    -0.81300
O548        O  0.17414237  0.86507012  0.36296205    -0.65900
O549        O  0.17214095  0.83493455  0.38200527    -1.12500
C550        C  0.30971970  0.83894746  0.37869191     1.05600
O551        O  0.21674628  0.83516474  0.35926905    -0.79200
O552        O  0.19848820  0.77190183  0.36945671    -0.66700
Ni553      Ni  0.15185895  0.85937551  0.38906132     1.34900
C554        C  0.19223372  0.75541889  0.37551617     0.84400
O555        O  0.10921278  0.83718318  0.37281717    -0.79700
O556        O  0.09445124  0.83700521  0.38419036    -0.90000
C557        C  0.19146970  0.85272374  0.35817096     0.83900
O558        O  0.17255147  0.91882525  0.38521073    -0.68200
O559        O  0.28933990  0.81929990  0.37313110    -0.87500
C560        C  0.18495158  0.93638941  0.37924676     0.84800
C561        C  0.08244185  0.83241721  0.37783000     1.06300
H562        H  0.25648258  0.89597117  0.37223175     0.38100
O563        O  0.23512095  0.86348903  0.37285751    -1.10100
O564        O  0.21010300  0.78166440  0.38077073    -0.66800
Ni565      Ni  0.23363129  0.84741025  0.38233410     1.26300
O566        O  0.19166850  0.91562770  0.37425689    -0.67000
O567        O  0.29589680  0.86041673  0.38243459    -0.79300
C568        C  0.23057699  0.86333853  0.39608257     0.84200
O569        O  0.23110909  0.83473190  0.39191323    -0.66500
Ni570      Ni  0.25047529  0.82855216  0.36671645     1.27400
Ni571      Ni  0.17233890  0.85117608  0.37261237     1.26100
H572        H  0.15172294  0.80205183  0.38228835     0.38700
O573        O  0.70610618  0.83879497  0.30420554    -0.81300
O574        O  0.70973735  0.89156513  0.27447163    -0.65900
O575        O  0.68658714  0.88199507  0.29371245    -1.12500
C576        C  0.55920964  0.73669814  0.28789754     1.05600
O577        O  0.63684089  0.86916622  0.27211519    -0.79200
O578        O  0.57461698  0.84330579  0.28243771    -0.66700
Ni579      Ni  0.73535623  0.89871897  0.30008337     1.34900
C580        C  0.56941125  0.84699360  0.28883817     0.84400
O581        O  0.75335394  0.94917533  0.28491401    -0.79700
O582        O  0.76777140  0.95952898  0.29626392    -0.90000
C583        C  0.67930966  0.89052361  0.27046759     0.83900
O584        O  0.77289780  0.88141950  0.29500066    -0.68200
O585        O  0.56089156  0.75594212  0.28211159    -0.87500
C586        C  0.76982139  0.86429224  0.28906373     0.84800
C587        C  0.77606587  0.97420692  0.29005051     1.06300
H588        H  0.66017043  0.80551251  0.28255581     0.38100
O589        O  0.64931926  0.82627733  0.28379374    -1.10100
O590        O  0.59127377  0.83845052  0.29349817    -0.66800
Ni591      Ni  0.63746995  0.81925823  0.29347974     1.26300
O592        O  0.74093012  0.86182760  0.28458277    -0.67000
O593        O  0.58880488  0.75623535  0.29272169    -0.79300
C594        C  0.66674667  0.82042225  0.30697242     0.84200
O595        O  0.63216624  0.81458034  0.30342265    -0.66500
Ni596      Ni  0.60108706  0.81349026  0.27748997     1.27400
Ni597      Ni  0.70078625  0.88761683  0.28417378     1.26100
H598        H  0.67371552  0.90149034  0.29466596     0.38700
O599        O  0.71069274  0.80026105  0.39427054    -0.81300
O600        O  0.72005205  0.83534573  0.36272088    -0.65900
O601        O  0.69209064  0.83399173  0.38188864    -1.12500
C602        C  0.56939694  0.68521433  0.37689577     1.05600
O603        O  0.64724886  0.81125789  0.36041507    -0.79200
O604        O  0.58387538  0.78916605  0.37019998    -0.66700
Ni605      Ni  0.73804224  0.85686569  0.38886663     1.34900
C606        C  0.57939146  0.79613296  0.37649762     0.84400
O607        O  0.75631920  0.90069671  0.37277745    -0.79700
O608        O  0.76891847  0.91522790  0.38416794    -0.90000
C609        C  0.68769103  0.82409242  0.35838062     0.83900
O610        O  0.77937343  0.84071203  0.38473459    -0.68200
O611        O  0.57093222  0.70187764  0.37090688    -0.87500
C612        C  0.78217437  0.82572406  0.37885657     0.84800
C613        C  0.77650525  0.92792369  0.37784674     1.06300
H614        H  0.67272078  0.75403941  0.37153155     0.38100
O615        O  0.65995293  0.77373262  0.37239959    -1.10100
O616        O  0.59965514  0.78769103  0.38133909    -0.66800
Ni617      Ni  0.64605533  0.77030572  0.38196657     1.26300
O618        O  0.75387237  0.81815162  0.37395045    -0.67000
O619        O  0.59897779  0.70673312  0.38162726    -0.79300
C620        C  0.66848974  0.77292635  0.39571531     0.84200
O621        O  0.63694675  0.76853210  0.39165497    -0.66500
Ni622      Ni  0.61113909  0.75748169  0.36594337     1.27400
Ni623      Ni  0.70852814  0.83676039  0.37241540     1.26100
H624        H  0.67714994  0.85210787  0.38228750     0.38700
O625        O  0.83957109  0.70375027  0.19575959    -0.81300
O626        O  0.89428121  0.70108770  0.22474908    -0.65900
O627        O  0.88329524  0.68076533  0.20548099    -1.12500
C628        C  0.73825666  0.55387868  0.21116652     1.05600
O629        O  0.87354446  0.62795580  0.22673113    -0.79200
O630        O  0.84685538  0.56828714  0.21592953    -0.66700
Ni631      Ni  0.90058171  0.73083611  0.19936687     1.34900
C632        C  0.84866706  0.56382637  0.20945591     0.84400
O633        O  0.95116953  0.74626956  0.21426440    -0.79700
O634        O  0.96203053  0.75995538  0.20287136    -0.90000
C635        C  0.89553683  0.67050690  0.22843359     0.83900
O636        O  0.88850859  0.77069835  0.20489360    -0.68200
O637        O  0.75867684  0.55328891  0.21674367    -0.87500
C638        C  0.87068852  0.76599394  0.21080175     0.84800
C639        C  0.97634408  0.76849191  0.20910343     1.06300
H640        H  0.80795239  0.65285678  0.21693273     0.38100
O641        O  0.82844348  0.64222864  0.21543410    -1.10100
O642        O  0.83798787  0.58553934  0.20507524    -0.66800
Ni643      Ni  0.82018738  0.63262632  0.20570788     1.26300
O644        O  0.86386901  0.73358164  0.21489694    -0.67000
O645        O  0.75710853  0.58488586  0.20651529    -0.79300
C646        C  0.82257875  0.66605158  0.19250376     0.84200
O647        O  0.81453622  0.62978281  0.19577314    -0.66500
Ni648      Ni  0.81697890  0.59267983  0.22137080     1.27400
Ni649      Ni  0.88965904  0.69351495  0.21503288     1.26100
H650        H  0.90214055  0.66740526  0.20437446     0.38700
O651        O  0.79708000  0.70508163  0.10497675    -0.81300
O652        O  0.82780287  0.71389198  0.13648922    -0.65900
O653        O  0.82870521  0.68627828  0.11744765    -1.12500
C654        C  0.68543934  0.55863656  0.12061108     1.05600
O655        O  0.78256422  0.64131261  0.14008504    -0.79200
O656        O  0.79696153  0.59538651  0.12963479    -0.66700
Ni657      Ni  0.85295721  0.73258450  0.11053702     1.34900
C658        C  0.80110813  0.58416073  0.12353066     0.84400
O659        O  0.89325081  0.74900865  0.12678194    -0.79700
O660        O  0.91060174  0.76394295  0.11549901    -0.90000
C661        C  0.80903804  0.68394047  0.14123338     0.83900
O662        O  0.83530188  0.77320894  0.11444937    -0.68200
O663        O  0.70549830  0.55701080  0.12609456    -0.87500
C664        C  0.81942935  0.77625129  0.12022744     0.84800
C665        C  0.92160061  0.77053481  0.12190069     1.06300
H666        H  0.74538055  0.66701486  0.12725428     0.38100
O667        O  0.76521107  0.65423653  0.12654777    -1.10100
O668        O  0.78356809  0.59387784  0.11838072    -0.66800
Ni669      Ni  0.76548930  0.64043890  0.11702161     1.26300
O670        O  0.81196446  0.74844634  0.12520814    -0.67000
O671        O  0.70165414  0.59455961  0.11690275    -0.79300
C672        C  0.77115887  0.66285103  0.10338838     0.84200
O673        O  0.76709960  0.63114932  0.10738523    -0.66500
Ni674      Ni  0.74701222  0.60288267  0.13257824     1.27400
Ni675      Ni  0.82913491  0.70197221  0.12685990     1.26100
H676        H  0.84710058  0.67160608  0.11717593     0.38700
O677        O  0.29918433  0.13364828  0.19587875    -0.81300
O678        O  0.29544827  0.17635864  0.22618267    -0.65900
O679        O  0.31004407  0.18897576  0.20678662    -1.12500
C680        C  0.44483523  0.17959679  0.21139814     1.05600
O681        O  0.36832925  0.22749234  0.22819491    -0.79200
O682        O  0.43040360  0.26442711  0.21792592    -0.66700
Ni683      Ni  0.26047413  0.14960110  0.20086294     1.34900
C684        C  0.42929594  0.27713352  0.21179510     0.84400
O685        O  0.24758488  0.18841946  0.21629384    -0.79700
O686        O  0.21830975  0.16239876  0.20569543    -0.90000
C687        C  0.32626601  0.20643547  0.23002037     0.83900
O688        O  0.23862199  0.09334629  0.20569853    -0.68200
O689        O  0.44064078  0.18917662  0.21763489    -0.87500
C690        C  0.23928592  0.08412444  0.21200501     0.84800
C691        C  0.21640545  0.17698421  0.21169952     1.06300
H692        H  0.34333967  0.14099714  0.21699928     0.38100
O693        O  0.35329432  0.17306169  0.21617787    -1.10100
O694        O  0.40372532  0.24959818  0.20707941    -0.66800
Ni695      Ni  0.36413332  0.18327847  0.20645859     1.26300
O696        O  0.26077523  0.11467771  0.21656449    -0.67000
O697        O  0.41749933  0.17600606  0.20651851    -0.79300
C698        C  0.33475367  0.16422029  0.19288274     0.84200
O699        O  0.36925346  0.19132194  0.19654510    -0.66500
Ni700      Ni  0.40210005  0.20674551  0.22255904     1.27400
Ni701      Ni  0.30059024  0.18089085  0.21645192     1.26100
H702        H  0.31836469  0.22030167  0.20567626     0.38700
O703        O  0.28895011  0.11048643  0.10586561    -0.81300
O704        O  0.27853338  0.14632815  0.13704396    -0.65900
O705        O  0.30415828  0.16652568  0.11769252    -1.12500
C706        C  0.43369155  0.15310785  0.12360746     1.05600
O707        O  0.34978260  0.20141588  0.13863897    -0.79200
O708        O  0.41340511  0.24086783  0.12900230    -0.66700
Ni709      Ni  0.25862910  0.13891537  0.11074343     1.34900
C710        C  0.41548809  0.25041313  0.12264462     0.84400
O711        O  0.23752267  0.16599922  0.12646072    -0.79700
O712        O  0.22504062  0.16525819  0.11498423    -0.90000
C713        C  0.31104150  0.17246380  0.14111494     0.83900
O714        O  0.21987750  0.08216869  0.11533161    -0.68200
O715        O  0.43059052  0.16898192  0.12944955    -0.87500
C716        C  0.21816327  0.06615088  0.12134219     0.84800
C717        C  0.21667637  0.17064962  0.12125318     1.06300
H718        H  0.33001827  0.11449369  0.12876920     0.38100
O719        O  0.34039646  0.14622086  0.12759232    -1.10100
O720        O  0.39599741  0.21969602  0.11803971    -0.66800
Ni721      Ni  0.35372318  0.15418476  0.11801262     1.26300
O722        O  0.24625160  0.08951517  0.12616497    -0.67000
O723        O  0.40428020  0.14312222  0.11877736    -0.79300
C724        C  0.33151370  0.12687280  0.10449727     0.84200
O725        O  0.36188707  0.15785271  0.10830971    -0.66500
Ni726      Ni  0.38841122  0.18393627  0.13385119     1.27400
Ni727      Ni  0.28847216  0.15524732  0.12721836     1.26100
H728        H  0.31678269  0.19921485  0.11703191     0.38700
O729        O  0.86140990  0.15179607  0.19532523    -0.81300
O730        O  0.81622575  0.10511280  0.22588432    -0.65900
O731        O  0.80425067  0.10995173  0.20648058    -1.12500
C732        C  0.82143583  0.25714298  0.21120918     1.05600
O733        O  0.76812871  0.13050142  0.22810936    -0.79200
O734        O  0.73299818  0.15726972  0.21765545    -0.66700
Ni735      Ni  0.84004467  0.09570083  0.20043732     1.34900
C736        C  0.72127386  0.14661379  0.21140163     0.84400
O737        O  0.80279134  0.04599194  0.21595887    -0.79700
O738        O  0.82131376  0.03827526  0.20510605    -0.90000
C739        C  0.78568795  0.10552717  0.22961077     0.83900
O740        O  0.89661992  0.12504547  0.20540897    -0.68200
O741        O  0.80952204  0.24228801  0.21738053    -0.87500
C742        C  0.90693645  0.13702666  0.21164972     0.84800
C743        C  0.80855316  0.02313662  0.21122329     1.06300
H744        H  0.85496328  0.18982387  0.21693150     0.38100
O745        O  0.82278203  0.16886228  0.21600333    -1.10100
O746        O  0.74898554  0.14921715  0.20669407    -0.66800
Ni747      Ni  0.81449965  0.17149740  0.20624773     1.26300
O748        O  0.87751367  0.13165000  0.21617845    -0.67000
O749        O  0.82603564  0.23376851  0.20640105    -0.79300
C750        C  0.83469147  0.16342756  0.19248143     0.84200
O751        O  0.80817405  0.17071228  0.19629227    -0.66500
Ni752      Ni  0.79040064  0.18546491  0.22237063     1.27400
Ni753      Ni  0.81212250  0.10720531  0.21615675     1.26100
H754        H  0.77232704  0.08876057  0.20541380     0.38700
O755        O  0.88045135  0.20622731  0.10426315    -0.81300
O756        O  0.85136933  0.16278832  0.13564699    -0.65900
O757        O  0.82693115  0.16898267  0.11638041    -1.12500
C758        C  0.84289360  0.31128692  0.12249504     1.05600
O759        O  0.79798004  0.18032901  0.13808304    -0.79200
O760        O  0.75588288  0.19838320  0.12785619    -0.66700
Ni761      Ni  0.85166662  0.14850404  0.10934160     1.34900
C762        C  0.74672043  0.19762253  0.12149320     0.84400
O763        O  0.82841254  0.10181889  0.12510759    -0.79700
O764        O  0.82520494  0.08883085  0.11367717    -0.90000
C765        C  0.82689847  0.16888942  0.14006018     0.83900
O766        O  0.90891008  0.16551424  0.11367237    -0.68200
O767        O  0.82333281  0.28936689  0.12800660    -0.87500
C768        C  0.92635097  0.18077478  0.11957624     0.84800
C769        C  0.82245584  0.07575964  0.11994933     1.06300
H770        H  0.88176534  0.24592392  0.12764447     0.38100
O771        O  0.85009826  0.22506649  0.12638807    -1.10100
O772        O  0.77767972  0.21296373  0.11686104    -0.66800
Ni773      Ni  0.84274716  0.23237783  0.11678049     1.26300
O774        O  0.90477927  0.18704743  0.12446667    -0.67000
O775        O  0.85754602  0.29528135  0.11779742    -0.79300
C776        C  0.86530621  0.23333630  0.10279236     0.84200
O777        O  0.83967555  0.23902648  0.10699742    -0.66500
Ni778      Ni  0.81213473  0.23414998  0.13270098     1.27400
Ni779      Ni  0.83981411  0.16389505  0.12588082     1.26100
H780        H  0.79398510  0.15029868  0.11584879     0.38700
O781        O  0.52465698  0.57595554  0.06181885    -0.81300
O782        O  0.48078624  0.54543050  0.03066322    -0.65900
O783        O  0.48490968  0.52167302  0.04986180    -1.12500
C784        C  0.62324605  0.52759430  0.04573402     1.05600
O785        O  0.51646386  0.50804310  0.02714747    -0.79200
O786        O  0.50846849  0.45332754  0.03793930    -0.66700
Ni787      Ni  0.46676120  0.54912602  0.05679069     1.34900
C788        C  0.50629191  0.44009795  0.04413875     0.84400
O789        O  0.41921477  0.52186982  0.04095198    -0.79700
O790        O  0.40773629  0.52483896  0.05236888    -0.90000
C791        C  0.49325137  0.52774196  0.02594607     0.83900
O792        O  0.48621545  0.60684120  0.05245099    -0.68200
O793        O  0.60191110  0.50701791  0.04025849    -0.87500
C794        C  0.49957728  0.62322910  0.04644817     0.84800
C795        C  0.39385765  0.51841528  0.04609664     1.06300
H796        H  0.56561612  0.57851558  0.03926536     0.38100
O797        O  0.54440020  0.54644187  0.04024313    -1.10100
O798        O  0.52503959  0.46898844  0.04904672    -0.66800
Ni799      Ni  0.54683848  0.53481657  0.04985936     1.26300
O800        O  0.50347631  0.60001666  0.04155720    -0.67000
O801        O  0.60929526  0.54858242  0.04957854    -0.79300
C802        C  0.54781580  0.55666143  0.06342848     0.84200
O803        O  0.54801517  0.52654451  0.05954936    -0.66500
Ni804      Ni  0.55695404  0.50908255  0.03422090     1.27400
Ni805      Ni  0.48198903  0.53477474  0.04038032     1.26100
H806        H  0.46488717  0.48890716  0.05042079     0.38700
O807        O  0.48506152  0.53445157  0.97075453    -0.81300
O808        O  0.43750605  0.48060989  0.94161069    -0.65900
O809        O  0.44351941  0.46921767  0.96097787    -1.12500
C810        C  0.58964297  0.48734847  0.95630746     1.05600
O811        O  0.45930664  0.42912828  0.93981305    -0.79200
O812        O  0.48265462  0.39474380  0.95085462    -0.66700
Ni813      Ni  0.42496485  0.50149566  0.96689479     1.34900
C814        C  0.47977332  0.38750865  0.95731628     0.84400
O815        O  0.37759971  0.46631000  0.95172239    -0.79700
O816        O  0.36454988  0.46983385  0.96302626    -0.90000
C817        C  0.43858171  0.45039122  0.93784456     0.83900
O818        O  0.43913947  0.55425116  0.96141640    -0.68200
O819        O  0.57041091  0.46794207  0.95059883    -0.87500
C820        C  0.45743833  0.56785324  0.95554574     0.84800
C821        C  0.35131586  0.46292007  0.95673317     1.06300
H822        H  0.52197863  0.51857255  0.95005301     0.38100
O823        O  0.50115873  0.48713210  0.95142624    -1.10100
O824        O  0.48819977  0.41895467  0.96173472    -0.66800
Ni825      Ni  0.50659220  0.48396017  0.96124481     1.26300
O826        O  0.46460417  0.54245622  0.95148845    -0.67000
O827        O  0.56975175  0.49843149  0.96091855    -0.79300
C828        C  0.49884136  0.51231459  0.97437172     0.84200
O829        O  0.50883077  0.48494000  0.97127897    -0.66500
Ni830      Ni  0.51397688  0.44984406  0.94558360     1.27400
Ni831      Ni  0.43967028  0.47651833  0.95137036     1.26100
H832        H  0.42421419  0.43687991  0.96202295     0.38700
O833        O  0.02225180  0.47158272  0.05982111    -0.81300
O834        O  0.03071037  0.52642493  0.02915016    -0.65900
O835        O  0.00647877  0.51674030  0.04859118    -1.12500
C836        C  0.87324794  0.37883343  0.04253441     1.05600
O837        O  0.96013608  0.51214525  0.02777194    -0.79200
O838        O  0.89984826  0.49061526  0.03774280    -0.66700
Ni839      Ni  0.05290500  0.53162972  0.05533260     1.34900
C840        C  0.89621934  0.49364701  0.04418339     0.84400
O841        O  0.07350617  0.58495075  0.03996428    -0.79700
O842        O  0.08696585  0.59268115  0.05144417    -0.90000
C843        C  0.99784661  0.52008321  0.02516766     0.83900
O844        O  0.08981680  0.51335211  0.05035261    -0.68200
O845        O  0.87572934  0.40024360  0.03694835    -0.87500
C846        C  0.08961792  0.49995421  0.04423592     0.84800
C847        C  0.09441540  0.60890440  0.04529821     1.06300
H848        H  0.97753161  0.44151752  0.03697326     0.38100
O849        O  0.96825951  0.46314110  0.03845252    -1.10100
O850        O  0.91395995  0.47863164  0.04855024    -0.66800
Ni851      Ni  0.95606319  0.45508514  0.04806881     1.26300
O852        O  0.06199629  0.49831282  0.03956232    -0.67000
O853        O  0.90488743  0.39397341  0.04710069    -0.79300
C854        C  0.97990353  0.44645984  0.06138447     0.84200
O855        O  0.94890625  0.44753431  0.05778323    -0.66500
Ni856      Ni  0.91996111  0.45638641  0.03251209     1.27400
Ni857      Ni  0.02135284  0.52358994  0.03900268     1.26100
H858        H  0.99448154  0.53699391  0.04953116     0.38700
O859        O  0.02878834  0.50003079  0.97082971    -0.81300
O860        O  0.03263779  0.54736593  0.93996299    -0.65900
O861        O  0.02005391  0.54455207  0.95941025    -1.12500
C862        C  0.88596100  0.40009455  0.95477225     1.05600
O863        O  0.95973934  0.52697388  0.93827733    -0.79200
O864        O  0.89540385  0.49578092  0.94845624    -0.66700
Ni865      Ni  0.06927214  0.55077693  0.96511624     1.34900
C866        C  0.89757148  0.51112419  0.95450725     0.84400
O867        O  0.08176302  0.60676675  0.94988484    -0.79700
O868        O  0.11404046  0.60254928  0.95984945    -0.90000
C869        C  0.00172851  0.54840661  0.93636618     0.83900
O870        O  0.08244733  0.50953422  0.96026763    -0.68200
O871        O  0.89027277  0.41266607  0.94844522    -0.87500
C872        C  0.08547760  0.50525393  0.95384368     0.84800
C873        C  0.11508322  0.62261263  0.95418256     1.06300
H874        H  0.98591165  0.46377265  0.94924111     0.38100
O875        O  0.97599484  0.48590526  0.95000728    -1.10100
O876        O  0.92658880  0.51339306  0.95897794    -0.66800
Ni877      Ni  0.96520092  0.48566730  0.95966793     1.26300
O878        O  0.06866068  0.52052830  0.94939057    -0.67000
O879        O  0.91164292  0.42549301  0.95965149    -0.79300
C880        C  0.99206123  0.49529678  0.97338558     0.84200
O881        O  0.95925353  0.48908937  0.96944318    -0.66500
Ni882      Ni  0.92698500  0.47041414  0.94365832     1.27400
Ni883      Ni  0.02862453  0.54638719  0.94970787     1.26100
H884        H  0.01309865  0.56824506  0.96067172     0.38700
O885        O  0.43805009  0.98685642  0.06236409    -0.81300
O886        O  0.45570989  0.97069943  0.03051088    -0.65900
O887        O  0.48559436  0.00292333  0.04953184    -1.12500
C888        C  0.46368782  0.12617305  0.04547089     1.05600
O889        O  0.48206019  0.04236211  0.02660497    -0.79200
O890        O  0.54169865  0.09263903  0.03695613    -0.66700
Ni891      Ni  0.46462528  0.95787425  0.05669261     1.34900
C892        C  0.55676834  0.10594341  0.04303821     0.84400
O893        O  0.48944214  0.93979898  0.04047000    -0.79700
O894        O  0.48938889  0.92483897  0.05181729    -0.90000
C895        C  0.46530740  0.99950947  0.02561869     0.83900
O896        O  0.40534537  0.91656715  0.05298977    -0.68200
O897        O  0.48517825  0.12728349  0.04002805    -0.87500
C898        C  0.38741597  0.91061116  0.04702953     0.84800
C899        C  0.49501584  0.91813630  0.04547833     1.06300
H900        H  0.41869710  0.01685733  0.03941944     0.38100
O901        O  0.45149008  0.03091671  0.04013679    -1.10100
O902        O  0.52933722  0.09536808  0.04813329    -0.66800
Ni903      Ni  0.46581241  0.04706856  0.04961342     1.26300
O904        O  0.40749924  0.93702820  0.04191276    -0.67000
O905        O  0.44554448  0.09121361  0.04939654    -0.79300
C906        C  0.45247433  0.02944114  0.06353601     0.84200
O907        O  0.47788872  0.05941297  0.05917871    -0.66500
Ni908      Ni  0.48295104  0.08122604  0.03386212     1.27400
Ni909      Ni  0.47007561  0.98503558  0.04012620     1.26100
H910        H  0.51874452  0.01878747  0.04983614     0.38700
O911        O  0.46662136  0.95678577  0.97132209    -0.81300
O912        O  0.51146688  0.96243204  0.94107118    -0.65900
O913        O  0.52574806  0.97703450  0.96045096    -1.12500
C914        C  0.50553565  0.10576667  0.95609383     1.05600
O915        O  0.56208491  0.03611458  0.93939413    -0.79200
O916        O  0.59528864  0.09704494  0.94981671    -0.66700
Ni917      Ni  0.49305772  0.92619996  0.96646226     1.34900
C918        C  0.60741788  0.09649142  0.95600060     0.84400
O919        O  0.52694833  0.91546246  0.95080544    -0.79700
O920        O  0.51701931  0.89210031  0.96188555    -0.90000
C921        C  0.54221222  0.99426022  0.93744001     0.83900
O922        O  0.43700950  0.89388277  0.96145362    -0.68200
O923        O  0.51787607  0.10361381  0.94993234    -0.87500
C924        C  0.42400078  0.89811826  0.95549278     0.84800
C925        C  0.52628914  0.88886763  0.95560224     1.06300
H926        H  0.47400441  0.00681674  0.95023923     0.38100
O927        O  0.50615208  0.01796694  0.95117892    -1.10100
O928        O  0.57967898  0.07092897  0.96068282    -0.66800
Ni929      Ni  0.51410823  0.02741411  0.96091360     1.26300
O930        O  0.45124102  0.92607283  0.95101752    -0.67000
O931        O  0.50224749  0.07805076  0.96090584    -0.79300
C932        C  0.49061499  0.99505012  0.97432786     0.84200
O933        O  0.51828962  0.03043036  0.97084826    -0.66500
Ni934      Ni  0.53857663  0.06768860  0.94497558     1.27400
Ni935      Ni  0.51683436  0.96718246  0.95080861     1.26100
H936        H  0.55800631  0.98862797  0.96136795     0.38700
C937        C  0.43603099  0.99813540  0.00686281    -0.11700
C938        C  0.46119338  0.97986592  0.00383337     0.14800
C939        C  0.48146550  0.96063080  0.00813676     0.01700
C940        C  0.47944014  0.96372436  0.01534664    -0.16100
C941        C  0.45654222  0.98463379  0.01833793    -0.10900
C942        C  0.43267205  0.99979316  0.01401734     0.08400
C943        C  0.46829738  0.98467665  0.99624057     0.09400
S944        S  0.51144747  0.93303381  0.00473599    -0.25200
H945        H  0.49768100  0.95184738  0.01861121     0.19700
S946        S  0.39874938  0.02344145  0.01734599    -0.30900
H947        H  0.41983515  0.01238843  0.00362164     0.10000
C948        C  0.43110772  0.96320471  0.99158356     0.03200
C949        C  0.43945364  0.96952225  0.98447385    -0.13200
C950        C  0.48425519  0.99644656  0.98185764    -0.08900
C951        C  0.52141919  0.01814687  0.98653502     0.06700
C952        C  0.51295004  0.01270027  0.99365325    -0.14000
S953        S  0.37326039  0.92570822  0.99465025    -0.30900
H954        H  0.41096358  0.95230556  0.98090021     0.10900
S955        S  0.58046718  0.05044736  0.98377570    -0.28000
H956        H  0.54158470  0.02951455  0.99721721     0.08200
H957        H  0.38728478  0.99881478  0.02360032     0.26600
H958        H  0.35147015  0.91500532  0.98816157     0.21400
H959        H  0.57587507  0.01940232  0.97855154     0.26700
H960        H  0.48627312  0.91824009  0.99854326     0.15500
C961        C  0.73214868  0.18591391  0.95366015    -0.11700
C962        C  0.73891100  0.21444048  0.95932373     0.14800
C963        C  0.70568342  0.19860808  0.96462032     0.01700
C964        C  0.66435016  0.15684743  0.96378893    -0.16100
C965        C  0.65569458  0.13039114  0.95778072    -0.10900
C966        C  0.69141388  0.14383502  0.95289019     0.08400
C967        C  0.77722743  0.26267643  0.95897766     0.09400
S968        S  0.71290001  0.23152684  0.97232485    -0.25200
H969        H  0.63754798  0.14679179  0.96761623     0.19700
S970        S  0.68634087  0.10987253  0.94538716    -0.30900
H971        H  0.75793486  0.19754067  0.94963958     0.10000
C972        C  0.82350725  0.27422832  0.95979647     0.03200
C973        C  0.85870804  0.31987039  0.95865282    -0.13200
C974        C  0.84829486  0.35372040  0.95656026    -0.08900
C975        C  0.80191409  0.34222149  0.95593217     0.06700
C976        C  0.76693760  0.29696749  0.95713214    -0.14000
S977        S  0.83752836  0.23062064  0.96216212    -0.30900
H978        H  0.89438834  0.32893091  0.95915240     0.10900
S979        S  0.78550557  0.38384403  0.95351149    -0.28000
H980        H  0.73138057  0.28812571  0.95646863     0.08200
H981        H  0.65483728  0.06727258  0.94836354     0.26600
H982        H  0.88532330  0.26026302  0.96272411     0.21400
H983        H  0.82061215  0.42006360  0.95731012     0.26700
H984        H  0.76125762  0.25578486  0.97226050     0.15500
C985        C  0.20267355  0.74564379  0.94898459    -0.11700
C986        C  0.24365835  0.74719555  0.95096613     0.14800
C987        C  0.24211467  0.70698222  0.95351436     0.01700
C988        C  0.19970495  0.66685054  0.95427897    -0.16100
C989        C  0.15835162  0.66549604  0.95258591    -0.10900
C990        C  0.15999767  0.70528138  0.94978912     0.08400
C991        C  0.28654417  0.79212410  0.95135004     0.09400
S992        S  0.29241514  0.70505506  0.95637406    -0.25200
H993        H  0.19894598  0.63641111  0.95635016     0.19700
S994        S  0.10910102  0.70789580  0.94764756    -0.30900
H995        H  0.20378758  0.77669487  0.94713087     0.10000
C996        C  0.31897388  0.80863732  0.94596781     0.03200
C997        C  0.36326071  0.84611422  0.94721581    -0.13200
C998        C  0.37499778  0.86752478  0.95371967    -0.08900
C999        C  0.34030893  0.85423127  0.95877109     0.06700
C1000       C  0.29687331  0.81619526  0.95758452    -0.14000
S1001       S  0.30511376  0.77934394  0.93776784    -0.30900
H1002       H  0.38952663  0.85661387  0.94329573     0.10900
S1003       S  0.34953196  0.88390503  0.96688055    -0.28000
H1004       H  0.27132774  0.80427900  0.96164313     0.08200
H1005       H  0.08368004  0.68226640  0.95340098     0.26600
H1006       H  0.34582784  0.81115927  0.93439028     0.21400
H1007       H  0.38163336  0.92749415  0.96425371     0.26700
H1008       H  0.32487555  0.74096464  0.95225181     0.15500
C1009       C  0.78315163  0.25522682  0.04699018    -0.11700
C1010       C  0.74291605  0.25593747  0.04523568     0.14800
C1011       C  0.74585794  0.29777727  0.04324430     0.01700
C1012       C  0.78894772  0.33692227  0.04246619    -0.16100
C1013       C  0.82954182  0.33597428  0.04383862    -0.10900
C1014       C  0.82653567  0.29495045  0.04634893     0.08400
C1015       C  0.69864880  0.21231545  0.04486518     0.09400
S1016       S  0.69604540  0.30322957  0.04139548    -0.25200
H1017       H  0.79081139  0.36866386  0.04077738     0.19700
S1018       S  0.87638895  0.29039241  0.04847275    -0.30900
H1019       H  0.78082870  0.22316502  0.04859720     0.10000
C1020       C  0.68050616  0.19110133  0.03847589     0.03200
C1021       C  0.63520540  0.15429568  0.03812410    -0.13200
C1022       C  0.60716223  0.13815946  0.04404087    -0.08900
C1023       C  0.62733495  0.15750794  0.05054360     0.06700
C1024       C  0.67256334  0.19442404  0.05085159    -0.14000
S1025       S  0.71449318  0.21243643  0.03071290    -0.30900
H1026       H  0.62104083  0.13960152  0.03313237     0.10900
S1027       S  0.59760693  0.13841589  0.05865183    -0.28000
H1028       H  0.68699857  0.21053341  0.05577392     0.08200
H1029       H  0.90404729  0.31930051  0.04312616     0.26600
H1030       H  0.68195939  0.17943979  0.02618165     0.21400
H1031       H  0.58074229  0.09151610  0.05724033     0.26700
H1032       H  0.66562398  0.26818171  0.04585692     0.15500
C1033       C  0.17787205  0.73601604  0.04866552    -0.11700
C1034       C  0.21009720  0.74618243  0.04340922     0.14800
C1035       C  0.20118719  0.71266015  0.03832367     0.01700
C1036       C  0.16185448  0.66892628  0.03884341    -0.16100
C1037       C  0.13079397  0.65775771  0.04433124    -0.10900
C1038       C  0.13815501  0.69259995  0.04912785     0.08400
C1039       C  0.25537818  0.78902308  0.04397665     0.09400
S1040       S  0.23998087  0.72286337  0.03126935    -0.25200
H1041       H  0.15661064  0.64278874  0.03510150     0.19700
S1042       S  0.09835023  0.68396300  0.05596162    -0.30900
H1043       H  0.18439131  0.76173245  0.05255598     0.10000
C1044       C  0.26239546  0.83237862  0.04188326     0.03200
C1045       C  0.30587952  0.87193454  0.04283049    -0.13200
C1046       C  0.34203218  0.86881070  0.04595605    -0.08900
C1047       C  0.33497747  0.82505250  0.04791065     0.06700
C1048       C  0.29180628  0.78583600  0.04691376    -0.14000
S1049       S  0.21608742  0.83702077  0.03795849    -0.30900
H1050       H  0.31158436  0.90537157  0.04124926     0.10900
S1051       S  0.38122472  0.81838792  0.05146687    -0.28000
H1052       H  0.28609532  0.75236500  0.04848450     0.08200
H1053       H  0.05876232  0.65328634  0.05221951     0.26600
H1054       H  0.24133273  0.88473310  0.03672055     0.21400
H1055       H  0.35874252  0.77006823  0.05106305     0.26700
H1056       H  0.25780568  0.77069021  0.03090464     0.15500
C1057       C  0.95221064  0.47876863  0.99209994    -0.11700
C1058       C  0.99296963  0.51183725  0.99535627     0.14800
C1059       C  0.03192172  0.53995669  0.99131784     0.01700
C1060       C  0.03024034  0.53291714  0.98421907    -0.16100
C1061       C  0.98992747  0.49941031  0.98093523    -0.10900
C1062       C  0.95016895  0.47243146  0.98492733     0.08400
C1063       C  0.99497196  0.51514307  0.00297840     0.09400
S1064       S  0.08455599  0.58598831  0.99490228    -0.25200
H1065       H  0.06064810  0.55469209  0.98119462     0.19700
S1066       S  0.89680828  0.42826280  0.98126544    -0.30900
H1067       H  0.92214520  0.45708628  0.99518969     0.10000
C1068       C  0.96905878  0.53041736  0.00663067     0.03200
C1069       C  0.97268146  0.53371739  0.01382852    -0.13200
C1070       C  0.00129206  0.52157637  0.01752684    -0.08900
C1071       C  0.02728205  0.50624467  0.01381577     0.06700
C1072       C  0.02421335  0.50373598  0.00660175    -0.14000
S1073       S  0.93217073  0.54679136  0.00212938    -0.30900
H1074       H  0.95258209  0.54543368  0.01661246     0.10900
S1075       S  0.06266854  0.48676783  0.01793627    -0.28000
H1076       H  0.04400386  0.49175048  0.00378107     0.08200
H1077       H  0.91733764  0.41335948  0.97637575     0.26600
H1078       H  0.91296484  0.55497630  0.00801322     0.21400
H1079       H  0.02910646  0.45902633  0.02280357     0.26700
H1080       H  0.06347037  0.59741993  0.00018433     0.15500
C1081       C  0.71677973  0.54044980  0.96149263    -0.11700
C1082       C  0.72762134  0.50944099  0.95834630     0.14800
C1083       C  0.69224384  0.47001094  0.95506344     0.01700
C1084       C  0.64792558  0.46367805  0.95465678    -0.16100
C1085       C  0.63709766  0.49558993  0.95749874    -0.10900
C1086       C  0.67213108  0.53422289  0.96105695     0.08400
C1087       C  0.77639072  0.52053202  0.95790887     0.09400
S1088       S  0.70188807  0.42714492  0.95108226    -0.25200
H1089       H  0.62155735  0.43338037  0.95202912     0.19700
S1090       S  0.66325995  0.57851489  0.96467663    -0.30900
H1091       H  0.74378684  0.57088450  0.96400095     0.10000
C1092       C  0.80087268  0.53601335  0.95167205     0.03200
C1093       C  0.84302169  0.53718658  0.95093633    -0.13200
C1094       C  0.86193672  0.52365923  0.95633537    -0.08900
C1095       C  0.83956325  0.51315703  0.96283800     0.06700
C1096       C  0.79688080  0.51107281  0.96351639    -0.14000
S1097       S  0.77711182  0.55195049  0.94450815    -0.30900
H1098       H  0.86008400  0.54620113  0.94598057     0.10900
S1099       S  0.86110048  0.49776444  0.97028302    -0.28000
H1100       H  0.77848990  0.49987680  0.96835895     0.08200
H1101       H  0.63785290  0.58022388  0.95900868     0.26600
H1102       H  0.81459295  0.56582423  0.94002011     0.21400
H1103       H  0.90484073  0.53750047  0.96989069     0.26700
H1104       H  0.73398190  0.43043902  0.95603732     0.15500
C1105       C  0.14069281  0.43130393  0.95325191    -0.11700
C1106       C  0.18357432  0.46298599  0.95045090     0.14800
C1107       C  0.18997335  0.50458641  0.94759443     0.01700
C1108       C  0.15474847  0.51513105  0.94809444    -0.16100
C1109       C  0.11361862  0.48553220  0.95152208    -0.10900
C1110       C  0.10572756  0.44227212  0.95385274     0.08400
C1111       C  0.22354295  0.45780530  0.95224020     0.09400
S1112       S  0.24440858  0.54850026  0.94417767    -0.25200
H1113       H  0.16119667  0.54863110  0.94637055     0.19700
S1114       S  0.05315939  0.40125430  0.95807010    -0.30900
H1115       H  0.13579975  0.39954267  0.95550078     0.10000
C1116       C  0.24768448  0.47722354  0.95840041     0.03200
C1117       C  0.28743587  0.47544827  0.95986714    -0.13200
C1118       C  0.30449051  0.45520333  0.95527490    -0.08900
C1119       C  0.27873590  0.43349789  0.94924181     0.06700
C1120       C  0.23853790  0.43513544  0.94778610    -0.14000
S1121       S  0.22890817  0.50621551  0.96429171    -0.30900
H1122       H  0.30665234  0.49225430  0.96448707     0.10900
S1123       S  0.29480046  0.40298715  0.94325868    -0.28000
H1124       H  0.21936059  0.41949889  0.94310367     0.08200
H1125       H  0.02539596  0.41701032  0.95505357     0.26600
H1126       H  0.26437587  0.51938336  0.96917784     0.21400
H1127       H  0.31240928  0.38590282  0.94834076     0.26700
H1128       H  0.26036342  0.51879304  0.94217155     0.15500
C1129       C  0.49499009  0.29212708  0.96516274    -0.11700
C1130       C  0.47088893  0.25699443  0.96032798     0.14800
C1131       C  0.44234823  0.26205436  0.95546271     0.01700
C1132       C  0.44187469  0.30350635  0.95512238    -0.16100
C1133       C  0.46915663  0.34056916  0.95954888    -0.10900
C1134       C  0.49396506  0.33348619  0.96489214     0.08400
C1135       C  0.48176736  0.21932821  0.95969942     0.09400
S1136       S  0.40958304  0.21890149  0.94905113    -0.25200
H1137       H  0.42233085  0.30797226  0.95103387     0.19700
S1138       S  0.52941996  0.37764153  0.97097934    -0.30900
H1139       H  0.51687165  0.28838835  0.96892304     0.10000
C1140       C  0.51463978  0.22277298  0.95488518     0.03200
C1141       C  0.52192785  0.18551668  0.95395690    -0.13200
C1142       C  0.49638795  0.14399386  0.95761877    -0.08900
C1143       C  0.46342468  0.14074199  0.96247325     0.06700
C1144       C  0.45724359  0.17872550  0.96356459    -0.14000
S1145       S  0.54700872  0.27459685  0.94982983    -0.30900
H1146       H  0.54769489  0.18875121  0.95030794     0.10900
S1147       S  0.42579418  0.08833214  0.96703585    -0.28000
H1148       H  0.43148201  0.17581803  0.96719541     0.08200
H1149       H  0.49370146  0.38542424  0.97300373     0.26600
H1150       H  0.57019674  0.25838275  0.94569143     0.21400
H1151       H  0.41790507  0.05948284  0.96132485     0.26700
H1152       H  0.40356821  0.18079333  0.95291014     0.15500
C1153       C  0.45776583  0.68049927  0.95386006    -0.11700
C1154       C  0.50275546  0.71032212  0.95162288     0.14800
C1155       C  0.53147500  0.69218565  0.94996952     0.01700
C1156       C  0.51520450  0.64494023  0.95091713    -0.16100
C1157       C  0.47078913  0.61547156  0.95348440    -0.10900
C1158       C  0.44134601  0.63347805  0.95472614     0.08400
C1159       C  0.51885700  0.76027700  0.95166610     0.09400
S1160       S  0.58947993  0.72767519  0.94689155    -0.25200
H1161       H  0.53797731  0.63148654  0.94991404     0.19700
S1162       S  0.38237111  0.59828681  0.95743080    -0.30900
H1163       H  0.43544158  0.69420774  0.95506266     0.10000
C1164       C  0.50381029  0.78028197  0.94664934     0.03200
C1165       C  0.51088217  0.82473292  0.94771857    -0.13200
C1166       C  0.53247222  0.84946178  0.95374855    -0.08900
C1167       C  0.55162969  0.83099186  0.95840884     0.06700
C1168       C  0.54415632  0.78648156  0.95735915    -0.14000
S1169       S  0.47318201  0.74807249  0.93909095    -0.30900
H1170       H  0.49630027  0.83867298  0.94410856     0.10900
S1171       S  0.58480407  0.86192919  0.96587498    -0.28000
H1172       H  0.55641957  0.77138274  0.96116570     0.08200
H1173       H  0.37448358  0.55941156  0.95361597     0.26600
H1174       H  0.47272585  0.78478570  0.93563377     0.21400
H1175       H  0.60192683  0.90594134  0.96294523     0.26700
H1176       H  0.58334227  0.76293169  0.94409385     0.15500
C1177       C  0.71024708  0.48742586  0.04736231    -0.11700
C1178       C  0.74933472  0.52748015  0.04966497     0.14800
C1179       C  0.74572553  0.56654820  0.05131197     0.01700
C1180       C  0.70368760  0.56530722  0.05027972    -0.16100
C1181       C  0.66508733  0.52576596  0.04764844    -0.10900
C1182       C  0.66827920  0.48586228  0.04644562     0.08400
C1183       C  0.79364532  0.52789332  0.04950595     0.09400
S1184       S  0.79354939  0.61910701  0.05457309    -0.25200
H1185       H  0.70156864  0.59590937  0.05131542     0.19700
S1186       S  0.62001168  0.43157750  0.04380777    -0.30900
H1187       H  0.71270397  0.45721264  0.04614088     0.10000
C1188       C  0.80175913  0.49877616  0.05381757     0.03200
C1189       C  0.83834597  0.49123368  0.05234286    -0.13200
C1190       C  0.86700167  0.51228729  0.04662810    -0.08900
C1191       C  0.86161780  0.54528717  0.04278258     0.06700
C1192       C  0.82471554  0.55220393  0.04420294    -0.14000
S1193       S  0.76412285  0.46957768  0.06099669    -0.30900
H1194       H  0.84258821  0.46639860  0.05536209     0.10900
S1195       S  0.89984054  0.57882430  0.03589532    -0.28000
H1196       H  0.81894033  0.57515416  0.04094435     0.08200
H1197       H  0.58851335  0.43538978  0.04811415     0.26600
H1198       H  0.78810477  0.44813245  0.06351095     0.21400
H1199       H  0.93901681  0.58010825  0.03876838     0.26700
H1200       H  0.81832761  0.59916158  0.05731854     0.15500
C1201       C  0.17655662  0.46107358  0.04645247    -0.11700
C1202       C  0.21085542  0.49089904  0.04186475     0.14800
C1203       C  0.20119327  0.51756442  0.03722311     0.01700
C1204       C  0.15878832  0.51614662  0.03759826    -0.16100
C1205       C  0.12579555  0.48881964  0.04253706    -0.10900
C1206       C  0.13419112  0.45960078  0.04681286     0.08400
C1207       C  0.25795784  0.49821476  0.04276895     0.09400
S1208       S  0.24309880  0.55749267  0.03120368    -0.25200
H1209       H  0.15297030  0.53920606  0.03437068     0.19700
S1210       S  0.09296692  0.42144533  0.05306742    -0.30900
H1211       H  0.18369532  0.44042951  0.05001065     0.10000
C1212       C  0.28867256  0.53109549  0.04750661     0.03200
C1213       C  0.33226207  0.53608864  0.04851472    -0.13200
C1214       C  0.34642440  0.50934395  0.04483028    -0.08900
C1215       C  0.31561753  0.47652620  0.04003472     0.06700
C1216       C  0.27169520  0.47119401  0.03908472    -0.14000
S1217       S  0.27237822  0.56690960  0.05227359    -0.30900
H1218       H  0.35588094  0.56163135  0.05212802     0.10900
S1219       S  0.32953173  0.43954574  0.03514640    -0.28000
H1220       H  0.24793760  0.44566447  0.03547833     0.08200
H1221       H  0.05391735  0.41663280  0.04959943     0.26600
H1222       H  0.31455308  0.59352638  0.05571845     0.21400
H1223       H  0.35609593  0.43477536  0.04036046     0.26700
H1224       H  0.26743022  0.53389396  0.03037539     0.15500
C1225       C  0.46940253  0.32454251  0.05296176    -0.11700
C1226       C  0.46633302  0.29778402  0.04723439     0.14800
C1227       C  0.46878899  0.31556673  0.04055336     0.01700
C1228       C  0.47875701  0.36099343  0.03973576    -0.16100
C1229       C  0.48557411  0.38959085  0.04545016    -0.10900
C1230       C  0.47786309  0.36975754  0.05214396     0.08400
C1231       C  0.46664383  0.25415463  0.04823109     0.09400
S1232       S  0.46298279  0.28302785  0.03284792    -0.25200
H1233       H  0.48329691  0.37453481  0.03453966     0.19700
S1234       S  0.47823026  0.39977852  0.05983947    -0.30900
H1235       H  0.46642547  0.31055959  0.05810318     0.10000
C1236       C  0.50736801  0.25285791  0.04711395     0.03200
C1237       C  0.50536304  0.21034238  0.04662599    -0.13200
C1238       C  0.46354413  0.16882273  0.04729327    -0.08900
C1239       C  0.42333575  0.17019255  0.04898540     0.06700
C1240       C  0.42537142  0.21296384  0.04947562    -0.14000
S1241       S  0.56174756  0.30544439  0.04604221    -0.30900
H1242       H  0.53638905  0.20930766  0.04549330     0.10900
S1243       S  0.36811806  0.11899312  0.05006763    -0.28000
H1244       H  0.39411336  0.21402194  0.05038827     0.08200
H1245       H  0.45511446  0.42045636  0.05673988     0.26600
H1246       H  0.58890516  0.28481440  0.04510575     0.21400
H1247       H  0.37373474  0.09411216  0.04470967     0.26700
H1248       H  0.43129755  0.23986921  0.03562135     0.15500
C1249       C  0.49468392  0.81273626  0.03789398    -0.11700
C1250       C  0.52078847  0.80516223  0.04284184     0.14800
C1251       C  0.54322128  0.83828153  0.04807562     0.01700
C1252       C  0.53591350  0.87579622  0.04861291    -0.16100
C1253       C  0.50713616  0.88189395  0.04396393    -0.10900
C1254       C  0.48727965  0.85031397  0.03841693     0.08400
C1255       C  0.51526799  0.75838624  0.04343036     0.09400
S1256       S  0.57848845  0.83232749  0.05457381    -0.25200
H1257       H  0.55177082  0.89971476  0.05284763     0.19700
S1258       S  0.44813513  0.85278914  0.03227139    -0.30900
H1259       H  0.47682225  0.78713361  0.03392351     0.10000
C1260       C  0.48368890  0.72673167  0.04819706     0.03200
C1261       C  0.47997405  0.68355345  0.04900489    -0.13200
C1262       C  0.50734020  0.67059862  0.04520213    -0.08900
C1263       C  0.53891702  0.70238547  0.04036725     0.06700
C1264       C  0.54203161  0.74560980  0.03945841    -0.14000
S1265       S  0.44756089  0.74123814  0.05325461    -0.30900
H1266       H  0.45495303  0.65938539  0.05261225     0.10900
S1267       S  0.57780234  0.69107610  0.03552105    -0.28000
H1268       H  0.56655424  0.77001254  0.03581424     0.08200
H1269       H  0.42227288  0.86030571  0.03724511     0.26600
H1270       H  0.42440851  0.69972157  0.05697311     0.21400
H1271       H  0.58642165  0.66857920  0.04096811     0.26700
H1272       H  0.59209673  0.80670888  0.05048992     0.15500
C1273       C  0.51647133  0.50632609  0.99387772    -0.11700
C1274       C  0.48953680  0.52416750  0.99649381     0.14800
C1275       C  0.46769903  0.53939273  0.99184205     0.01700
C1276       C  0.47275997  0.53607248  0.98475318    -0.16100
C1277       C  0.49841754  0.51682193  0.98204813    -0.10900
C1278       C  0.52095795  0.50217862  0.98672381     0.08400
C1279       C  0.48404246  0.52538963  0.00408502     0.09400
S1280       S  0.43174687  0.56218352  0.99459260    -0.25200
H1281       H  0.45493741  0.54748862  0.98131590     0.19700
S1282       S  0.55601210  0.47898512  0.98370818    -0.30900
H1283       H  0.53353801  0.49509552  0.99748966     0.10000
C1284       C  0.46014981  0.48431319  0.00791561     0.03200
C1285       C  0.45935967  0.48635571  0.01513199    -0.13200
C1286       C  0.48124997  0.52866650  0.01863205    -0.08900
C1287       C  0.50176509  0.56987644  0.01475793     0.06700
C1288       C  0.50348680  0.56786923  0.00753803    -0.14000
S1289       S  0.43148128  0.42915165  0.00361644    -0.30900
H1290       H  0.44381710  0.45475480  0.01810580     0.10900
S1291       S  0.53021184  0.62570722  0.01877752    -0.28000
H1292       H  0.52119501  0.59957727  0.00460412     0.08200
H1293       H  0.57121047  0.47338559  0.99021945     0.26600
H1294       H  0.41504509  0.40186890  0.00959447     0.21400
H1295       H  0.49580536  0.61445373  0.02374542     0.26700
H1296       H  0.41464531  0.53488753  0.00055350     0.15500
C1297       C  0.97617766  0.38844715  0.07860254    -0.11700
C1298       C  0.93484906  0.34638999  0.07794689     0.14800
C1299       C  0.90988574  0.33674173  0.07170036     0.01700
C1300       C  0.92515702  0.37010901  0.06647020    -0.16100
C1301       C  0.96584995  0.41287637  0.06718521    -0.10900
C1302       C  0.99192398  0.42160512  0.07332481     0.08400
C1303       C  0.91639162  0.31562028  0.08409074     0.09400
S1304       S  0.85857885  0.28231882  0.07005284    -0.25200
H1305       H  0.90532617  0.36222350  0.06173923     0.19700
S1306       S  0.04404883  0.47524389  0.07494471    -0.30900
H1307       H  0.99546411  0.39624262  0.08338489     0.10000
C1308       C  0.93777259  0.29207137  0.08683064     0.03200
C1309       C  0.91988175  0.26504792  0.09281935    -0.13200
C1310       C  0.88069822  0.26065481  0.09619985    -0.08900
C1311       C  0.85876359  0.28357195  0.09325866     0.06700
C1312       C  0.87707813  0.31092340  0.08734361    -0.14000
S1313       S  0.98749065  0.29587745  0.08263870    -0.30900
H1314       H  0.93713238  0.24780371  0.09493284     0.10900
S1315       S  0.80673909  0.27890522  0.09660995    -0.28000
H1316       H  0.86032180  0.32871413  0.08522172     0.08200
H1317       H  0.02757716  0.50292810  0.07210999     0.26600
H1318       H  0.99281767  0.26561920  0.08707935     0.21400
H1319       H  0.78460643  0.23081605  0.09745105     0.26700
H1320       H  0.87015892  0.25596292  0.07439060     0.15500
C1321       C  0.87306260  0.18749739  0.15848603    -0.11700
C1322       C  0.83235155  0.16175167  0.16229055     0.14800
C1323       C  0.79057926  0.13548816  0.15864943     0.01700
C1324       C  0.79020038  0.13692923  0.15140745    -0.16100
C1325       C  0.83077867  0.16314231  0.14760344    -0.10900
C1326       C  0.87269788  0.18868219  0.15123366     0.08400
C1327       C  0.83432585  0.16396979  0.17001160     0.09400
S1328       S  0.73648124  0.09970478  0.16293192    -0.25200
H1329       H  0.75770291  0.11770634  0.14870251     0.19700
S1330       S  0.92627407  0.22616207  0.14694563    -0.30900
H1331       H  0.90525348  0.20814756  0.16120444     0.10000
C1332       C  0.85860765  0.14711303  0.17381678     0.03200
C1333       C  0.85862775  0.14854406  0.18105508    -0.13200
C1334       C  0.83539676  0.16705733  0.18473792    -0.08900
C1335       C  0.81258073  0.18570079  0.18087268     0.06700
C1336       C  0.81179756  0.18336478  0.17360924    -0.14000
S1337       S  0.88782173  0.12141656  0.16949342    -0.30900
H1338       H  0.87617501  0.13387754  0.18385575     0.10900
S1339       S  0.78484634  0.21388757  0.18482287    -0.28000
H1340       H  0.79385284  0.19730859  0.17071845     0.08200
H1341       H  0.90744343  0.24310459  0.14204197     0.26600
H1342       H  0.91125245  0.11825059  0.17531309     0.21400
H1343       H  0.82163775  0.24013144  0.18935785     0.26700
H1344       H  0.75501811  0.08847038  0.16863086     0.15500
C1345       C  0.05163374  0.22856710  0.12503008    -0.11700
C1346       C  0.05874019  0.19288692  0.12273310     0.14800
C1347       C  0.02219828  0.15388081  0.11954386     0.01700
C1348       C  0.97995150  0.15156368  0.11864845    -0.16100
C1349       C  0.97267167  0.18727268  0.12082115    -0.10900
C1350       C  0.00897941  0.22626563  0.12406829     0.08400
C1351       C  0.10435174  0.19656189  0.12347226     0.09400
S1352       S  0.02683923  0.10543141  0.11653720    -0.25200
H1353       H  0.95218570  0.12120286  0.11622455     0.19700
S1354       S  0.00361603  0.27465575  0.12679128    -0.30900
H1355       H  0.07967363  0.25864526  0.12745423     0.10000
C1356       C  0.13949359  0.22166450  0.11864776     0.03200
C1357       C  0.17684752  0.21398428  0.11820501    -0.13200
C1358       C  0.17979822  0.18173515  0.12250481    -0.08900
C1359       C  0.14566132  0.15860817  0.12759923     0.06700
C1360       C  0.10894565  0.16697790  0.12811147    -0.14000
S1361       S  0.13475005  0.26049646  0.11266985    -0.30900
H1362       H  0.20302899  0.23190757  0.11433019     0.10900
S1363       S  0.14368613  0.11389688  0.13301955    -0.28000
H1364       H  0.08154187  0.14713479  0.13174398     0.08200
H1365       H  0.97381892  0.27135585  0.12142109     0.26600
H1366       H  0.17823860  0.27759569  0.10961909     0.21400
H1367       H  0.15422501  0.09258441  0.12766582     0.26700
H1368       H  0.07291943  0.13070081  0.11441403     0.15500
C1369       C  0.63616836  0.18757277  0.11438959    -0.11700
C1370       C  0.60376107  0.15293559  0.11868966     0.14800
C1371       C  0.61769517  0.12798510  0.12295254     0.01700
C1372       C  0.66432471  0.14142947  0.12338648    -0.16100
C1373       C  0.69771199  0.17911600  0.11959622    -0.10900
C1374       C  0.68296598  0.20121195  0.11482540     0.08400
C1375       C  0.55962428  0.15158036  0.11990651     0.09400
S1376       S  0.57823810  0.08172634  0.12847544    -0.25200
H1377       H  0.67490221  0.12363788  0.12697843     0.19700
S1378       S  0.72196877  0.25024121  0.10972995    -0.30900
H1379       H  0.62556778  0.20697875  0.11113988     0.10000
C1380       C  0.55614030  0.17747215  0.12532236     0.03200
C1381       C  0.51439816  0.17605178  0.12647851    -0.13200
C1382       C  0.47533799  0.14903939  0.12236451    -0.08900
C1383       C  0.47884667  0.12216276  0.11700567     0.06700
C1384       C  0.52115646  0.12455555  0.11574988    -0.14000
S1385       S  0.60539242  0.21319782  0.13071594    -0.30900
H1386       H  0.51264814  0.19703915  0.13055861     0.10900
S1387       S  0.43064949  0.08258465  0.11179759    -0.28000
H1388       H  0.52381837  0.10425736  0.11163238     0.08200
H1389       H  0.75347863  0.27246771  0.11509667     0.26600
H1390       H  0.58485219  0.23332490  0.13461491     0.21400
H1391       H  0.39965629  0.06580967  0.11735720     0.26700
H1392       H  0.53878407  0.06885821  0.12444520     0.15500
C1393       C  0.33488401  0.05979675  0.08856586    -0.11700
C1394       C  0.38248242  0.07845014  0.08772990     0.14800
C1395       C  0.41252387  0.11183554  0.09248887     0.01700
C1396       C  0.39479351  0.12715260  0.09771632    -0.16100
C1397       C  0.34706847  0.10872602  0.09862865    -0.10900
C1398       C  0.31687327  0.07356274  0.09400934     0.08400
C1399       C  0.40022863  0.06513114  0.08161739     0.09400
S1400       S  0.47403924  0.13576934  0.09225504    -0.25200
H1401       H  0.41900860  0.15334586  0.10119978     0.19700
S1402       S  0.25520580  0.04447218  0.09471492    -0.30900
H1403       H  0.31147936  0.03410073  0.08494557     0.10000
C1404       C  0.39256462  0.02016176  0.08068984     0.03200
C1405       C  0.41063484  0.00989703  0.07485098    -0.13200
C1406       C  0.43682802  0.04365265  0.06986620    -0.08900
C1407       C  0.44514166  0.08924494  0.07093139     0.06700
C1408       C  0.42643240  0.09896515  0.07672492    -0.14000
S1409       S  0.36094943  0.97607514  0.08705192    -0.30900
H1410       H  0.40415958  0.97514909  0.07417470     0.10900
S1411       S  0.47967996  0.13636367  0.06511724    -0.28000
H1412       H  0.43259936  0.13353920  0.07751831     0.08200
H1413       H  0.25531023  0.02921988  0.10148631     0.26600
H1414       H  0.36590277  0.94104351  0.08392350     0.21400
H1415       H  0.46693941  0.16764253  0.06764096     0.26700
H1416       H  0.47261592  0.09589755  0.08969627     0.15500
C1417       C  0.28453358  0.12996970  0.15972767    -0.11700
C1418       C  0.31278208  0.17105692  0.16331737     0.14800
C1419       C  0.33599139  0.21270395  0.15960415     0.01700
C1420       C  0.33264055  0.21211060  0.15241006    -0.16100
C1421       C  0.30601274  0.17084339  0.14874016    -0.10900
C1422       C  0.28111605  0.12933066  0.15250058     0.08400
C1423       C  0.31872140  0.16946594  0.17088981     0.09400
S1424       S  0.37108577  0.26764020  0.16374141    -0.25200
H1425       H  0.35184230  0.24431909  0.14963072     0.19700
S1426       S  0.24752029  0.07413672  0.14839995    -0.30900
H1427       H  0.26648107  0.09787472  0.16256428     0.10000
C1428       C  0.28262267  0.16022731  0.17544344     0.03200
C1429       C  0.28980533  0.16004888  0.18255750    -0.13200
C1430       C  0.33234920  0.16879631  0.18529712    -0.08900
C1431       C  0.36857836  0.17814732  0.18071953     0.06700
C1432       C  0.36134501  0.17817630  0.17357368    -0.14000
S1433       S  0.22759842  0.14960932  0.17221326    -0.30900
H1434       H  0.26190024  0.15304388  0.18603738     0.10900
S1435       S  0.42313615  0.18665011  0.18366334    -0.28000
H1436       H  0.38908369  0.18493325  0.17006826     0.08200
H1437       H  0.28171252  0.08130284  0.14358317     0.26600
H1438       H  0.20542352  0.14120423  0.17863350     0.21400
H1439       H  0.43238438  0.22476212  0.18778607     0.26700
H1440       H  0.34495190  0.25679639  0.16981897     0.15500
C1441       C  0.56419969  0.19360298  0.21133429    -0.11700
C1442       C  0.55592797  0.15281658  0.20810875     0.14800
C1443       C  0.51146853  0.12218853  0.20553731     0.01700
C1444       C  0.47606268  0.13246089  0.20640664    -0.16100
C1445       C  0.48406202  0.17266283  0.20983380    -0.10900
C1446       C  0.52906989  0.20401663  0.21217468     0.08400
C1447       C  0.59408587  0.14261090  0.20793464     0.09400
S1448       S  0.49748768  0.06881242  0.20136202    -0.25200
H1449       H  0.44171968  0.10819936  0.20459718     0.19700
S1450       S  0.54403125  0.25807976  0.21623764    -0.30900
H1451       H  0.59834274  0.21736118  0.21327850     0.10000
C1452       C  0.63023576  0.16423046  0.20314666     0.03200
C1453       C  0.66958416  0.16004374  0.20390104    -0.13200
C1454       C  0.67414310  0.13577885  0.20948383    -0.08900
C1455       C  0.63631503  0.11132558  0.21397232     0.06700
C1456       C  0.59681699  0.11503462  0.21315061    -0.14000
S1457       S  0.62777364  0.20002205  0.19638230    -0.30900
H1458       H  0.69863116  0.17941254  0.20051308     0.10900
S1459       S  0.63720982  0.07656774  0.22102458    -0.28000
H1460       H  0.56886134  0.09804037  0.21680192     0.08200
H1461       H  0.51372163  0.26625606  0.21226379     0.26600
H1462       H  0.66615116  0.20538019  0.19269438     0.21400
H1463       H  0.66912822  0.06655959  0.21797710     0.26700
H1464       H  0.54131281  0.08423028  0.19854407     0.15500
C1465       C  0.03631477  0.19536903  0.21080059    -0.11700
C1466       C  0.04501908  0.17251304  0.21614741     0.14800
C1467       C  0.00936293  0.14463434  0.22077403     0.01700
C1468       C  0.96483588  0.13657268  0.21952481    -0.16100
C1469       C  0.95529639  0.15590204  0.21376026    -0.10900
C1470       C  0.99197218  0.18765512  0.20959050     0.08400
C1471       C  0.08878420  0.17210390  0.21590818     0.09400
S1472       S  0.01763811  0.11529602  0.22797365    -0.25200
H1473       H  0.93695306  0.11254365  0.22279775     0.19700
S1474       S  0.98403848  0.21797406  0.20249934    -0.30900
H1475       H  0.06375676  0.21733065  0.20729884     0.10000
C1476       C  0.08983162  0.13387567  0.21313523     0.03200
C1477       C  0.13219488  0.13689462  0.21190410    -0.13200
C1478       C  0.17375467  0.17704303  0.21345091    -0.08900
C1479       C  0.17270492  0.21461012  0.21654589     0.06700
C1480       C  0.13015425  0.21185314  0.21768602    -0.14000
S1481       S  0.03731063  0.08178830  0.21085447    -0.30900
H1482       H  0.13306101  0.10778527  0.20967038     0.10900
S1483       S  0.22397888  0.26736827  0.21888199    -0.28000
H1484       H  0.12926370  0.24127061  0.21979335     0.08200
H1485       H  0.94584282  0.21848048  0.20535279     0.26600
H1486       H  0.05777865  0.05602074  0.20879672     0.21400
H1487       H  0.25116664  0.26667203  0.21344307     0.26700
H1488       H  0.06544165  0.14452373  0.22856298     0.15500
C1489       C  0.82772615  0.97256735  0.12722094    -0.11700
C1490       C  0.80094693  0.93841880  0.12239787     0.14800
C1491       C  0.77849745  0.94866863  0.11709493     0.01700
C1492       C  0.78466451  0.99309085  0.11658683    -0.16100
C1493       C  0.81315468  0.02809472  0.12122499    -0.10900
C1494       C  0.83489697  0.01732731  0.12661843     0.08400
C1495       C  0.80546173  0.89669940  0.12212535     0.09400
S1496       S  0.74480597  0.90784238  0.11046732    -0.25200
H1497       H  0.76804488  0.00072466  0.11239874     0.19700
S1498       S  0.87654395  0.06001517  0.13238733    -0.30900
H1499       H  0.84626128  0.96529062  0.13115271     0.10000
C1500       C  0.84179936  0.89772636  0.11839818     0.03200
C1501       C  0.84511176  0.85792398  0.11796441    -0.13200
C1502       C  0.81272125  0.81646865  0.12113373    -0.08900
C1503       C  0.77649304  0.81562547  0.12495854     0.06700
C1504       C  0.77367933  0.85596793  0.12550505    -0.14000
S1505       S  0.88409166  0.94993582  0.11414802    -0.30900
H1506       H  0.87342975  0.85918314  0.11513097     0.10900
S1507       S  0.73164781  0.76395640  0.12890068    -0.28000
H1508       H  0.74571635  0.85523461  0.12837622     0.08200
H1509       H  0.89952093  0.09270880  0.12716948     0.26600
H1510       H  0.91197158  0.93287261  0.11166777     0.21400
H1511       H  0.72880726  0.73467722  0.12350758     0.26700
H1512       H  0.73064867  0.86802940  0.11446102     0.15500
C1513       C  0.88366868  0.43839265  0.11920007    -0.11700
C1514       C  0.84357424  0.43933891  0.12094606     0.14800
C1515       C  0.80337597  0.39784781  0.12263792     0.01700
C1516       C  0.80479165  0.35719207  0.12304640    -0.16100
C1517       C  0.84496151  0.35597488  0.12152391    -0.10900
C1518       C  0.88479983  0.39703911  0.11947640     0.08400
C1519       C  0.84435829  0.48371401  0.12154501     0.09400
S1520       S  0.74930762  0.39468446  0.12450984    -0.25200
H1521       H  0.77389803  0.32594129  0.12457944     0.19700
S1522       S  0.93848676  0.39948567  0.11760971    -0.30900
H1523       H  0.91461211  0.47021716  0.11788960     0.10000
C1524       C  0.84252734  0.50109322  0.12806059     0.03200
C1525       C  0.83196083  0.53645135  0.12851442    -0.13200
C1526       C  0.82288734  0.55502704  0.12257576    -0.08900
C1527       C  0.82985591  0.54064153  0.11602051     0.06700
C1528       C  0.83990375  0.50487639  0.11559327    -0.14000
S1529       S  0.85097004  0.47621459  0.13582789    -0.30900
H1530       H  0.82831371  0.54776876  0.13357034     0.10900
S1531       S  0.82540983  0.56512631  0.10798234    -0.28000
H1532       H  0.84214004  0.49198030  0.11057683     0.08200
H1533       H  0.93360280  0.36693471  0.12261977     0.26600
H1534       H  0.84259004  0.50287183  0.14055342     0.21400
H1535       H  0.84993963  0.61074169  0.11038959     0.26700
H1536       H  0.75515570  0.42896822  0.11977563     0.15500
C1537       C  0.02511946  0.87566703  0.12984402    -0.11700
C1538       C  0.05961109  0.88346733  0.12507652     0.14800
C1539       C  0.05003566  0.85022902  0.11991669     0.01700
C1540       C  0.00538089  0.81258307  0.11921446    -0.16100
C1541       C  0.96968536  0.80646732  0.12364381    -0.10900
C1542       C  0.98040302  0.83784839  0.12917890     0.08400
C1543       C  0.10031963  0.93059782  0.12453368     0.09400
S1544       S  0.09245678  0.85611973  0.11371045    -0.25200
H1545       H  0.99810710  0.78861639  0.11501668     0.19700
S1546       S  0.93774997  0.83479098  0.13510319    -0.30900
H1547       H  0.03205229  0.90129595  0.13376819     0.10000
C1548       C  0.09740810  0.96410629  0.12052005     0.03200
C1549       C  0.13644182  0.00753673  0.11964091    -0.13200
C1550       C  0.17892986  0.01898689  0.12270392    -0.08900
C1551       C  0.18159030  0.98565290  0.12686884     0.06700
C1552       C  0.14214163  0.94204144  0.12781093    -0.14000
S1553       S  0.04376388  0.95144084  0.11644662    -0.30900
H1554       H  0.13374933  0.03299024  0.11653876     0.10900
S1555       S  0.23456350  0.99564976  0.13076892    -0.28000
H1556       H  0.14444716  0.91634573  0.13091152     0.08200
H1557       H  0.90606120  0.82929607  0.12989920     0.26600
H1558       H  0.05818267  0.99624795  0.11404789     0.21400
H1559       H  0.26264976  0.02147103  0.12522525     0.26700
H1560       H  0.13032190  0.87851379  0.11818385     0.15500
C1561       C  0.59837056  0.43285346  0.11802845    -0.11700
C1562       C  0.55784651  0.43423291  0.11691778     0.14800
C1563       C  0.56031579  0.47739411  0.11623006     0.01700
C1564       C  0.60291088  0.51803681  0.11704363    -0.16100
C1565       C  0.64304080  0.51632926  0.11850670    -0.10900
C1566       C  0.64070879  0.47312165  0.11873083     0.08400
C1567       C  0.51394465  0.38987315  0.11735188     0.09400
S1568       S  0.51040473  0.48276099  0.11452318    -0.25200
H1569       H  0.60439116  0.55103145  0.11682309     0.19700
S1570       S  0.69059687  0.46705016  0.11997673    -0.30900
H1571       H  0.59681495  0.39990922  0.11854039     0.10000
C1572       C  0.50357572  0.35385826  0.11267459     0.03200
C1573       C  0.46884743  0.30892947  0.11428486    -0.13200
C1574       C  0.44408185  0.29925525  0.12048386    -0.08900
C1575       C  0.45122335  0.33642547  0.12476944     0.06700
C1576       C  0.48647072  0.38106633  0.12321481    -0.14000
S1577       S  0.53605613  0.36489297  0.10480212    -0.30900
H1578       H  0.46294970  0.28087742  0.11089993     0.10900
S1579       S  0.41711106  0.32928311  0.13232615    -0.28000
H1580       H  0.49388338  0.40882526  0.12676926     0.08200
H1581       H  0.71965114  0.50569186  0.11594922     0.26600
H1582       H  0.51123775  0.31990713  0.10214956     0.21400
H1583       H  0.37624922  0.29264729  0.12960786     0.26700
H1584       H  0.48446200  0.43983654  0.11126645     0.15500
C1585       C  0.61174639  0.55971278  0.07983618    -0.11700
C1586       C  0.64430477  0.60685888  0.08031184     0.14800
C1587       C  0.64484038  0.63700943  0.07514287     0.01700
C1588       C  0.61107230  0.62002769  0.06997158    -0.16100
C1589       C  0.57862370  0.57290318  0.06950251    -0.10900
C1590       C  0.57943632  0.54240210  0.07446566     0.08400
C1591       C  0.67767145  0.62291117  0.08615721     0.09400
S1592       S  0.68945806  0.69660422  0.07453959    -0.25200
H1593       H  0.61179638  0.64341372  0.06603646     0.19700
S1594       S  0.54009346  0.48118026  0.07427291    -0.30900
H1595       H  0.61147991  0.53614280  0.08369743     0.10000
C1596       C  0.68062878  0.65569556  0.09099884     0.03200
C1597       C  0.71326224  0.66987423  0.09635008    -0.13200
C1598       C  0.74163612  0.65051178  0.09717131    -0.08900
C1599       C  0.73777617  0.61690399  0.09242295     0.06700
C1600       C  0.70618467  0.60374212  0.08697644    -0.14000
S1601       S  0.64047461  0.67667243  0.09074929    -0.30900
H1602       H  0.71510709  0.69444622  0.10012969     0.10900
S1603       S  0.77231540  0.58972248  0.09297884    -0.28000
H1604       H  0.70384553  0.57828469  0.08331920     0.08200
H1605       H  0.50302444  0.48387983  0.07139233     0.26600
H1606       H  0.66244507  0.71107899  0.09578620     0.21400
H1607       H  0.81113656  0.62771330  0.09588778     0.26700
H1608       H  0.72441213  0.69049718  0.07746627     0.15500
C1609       C  0.08663199  0.86123488  0.21774143    -0.11700
C1610       C  0.10144026  0.89644574  0.21280399     0.14800
C1611       C  0.07777193  0.88754734  0.20646580     0.01700
C1612       C  0.03942114  0.84435799  0.20526511    -0.16100
C1613       C  0.02273827  0.80938816  0.21030355    -0.10900
C1614       C  0.04786997  0.81777165  0.21654508     0.08400
C1615       C  0.14139470  0.94243570  0.21427787     0.09400
S1616       S  0.09375758  0.93023973  0.19974002    -0.25200
H1617       H  0.02093450  0.83918705  0.20045426     0.19700
S1618       S  0.03318297  0.77452871  0.22310039    -0.30900
H1619       H  0.10536516  0.86771679  0.22255725     0.10000
C1620       C  0.13609853  0.97557229  0.21798872     0.03200
C1621       C  0.17141020  0.02185250  0.21784047    -0.13200
C1622       C  0.21157321  0.03537540  0.21401354    -0.08900
C1623       C  0.21839835  0.00144432  0.21084551     0.06700
C1624       C  0.18322848  0.95537472  0.21099001    -0.14000
S1625       S  0.08237038  0.95979631  0.22221844    -0.30900
H1626       H  0.16604411  0.04805085  0.22018310     0.10900
S1627       S  0.27009240  0.01542271  0.20616479    -0.28000
H1628       H  0.18742406  0.92985227  0.20817952     0.08200
H1629       H  0.02013164  0.73845894  0.21834533     0.26600
H1630       H  0.09637843  0.00314423  0.22515734     0.21400
H1631       H  0.29880067  0.05664977  0.20970556     0.26700
H1632       H  0.10914037  0.96857920  0.20409494     0.15500
C1633       C  0.63057736  0.43537636  0.21051691    -0.11700
C1634       C  0.59680055  0.44635958  0.20866699     0.14800
C1635       C  0.60998632  0.49283715  0.20738571     0.01700
C1636       C  0.65640691  0.52717089  0.20809491    -0.16100
C1637       C  0.69016136  0.51619915  0.21006238    -0.10900
C1638       C  0.67684794  0.46942475  0.21115893     0.08400
C1639       C  0.54823536  0.40822673  0.20849231     0.09400
S1640       S  0.56932037  0.51056509  0.20493535    -0.25200
H1641       H  0.66613052  0.56283164  0.20722404     0.19700
S1642       S  0.71720119  0.45053416  0.21321144    -0.30900
H1643       H  0.62069863  0.39974186  0.21147528     0.10000
C1644       C  0.53222367  0.37457636  0.20325877     0.03200
C1645       C  0.48982614  0.33372471  0.20405389    -0.13200
C1646       C  0.46330843  0.32560277  0.21003377    -0.08900
C1647       C  0.47730279  0.36159171  0.21491196     0.06700
C1648       C  0.51968113  0.40222924  0.21411892    -0.14000
S1649       S  0.56723879  0.38247539  0.19577370    -0.30900
H1650       H  0.47940094  0.30641100  0.20030126     0.10900
S1651       S  0.44360241  0.35685003  0.22241798    -0.28000
H1652       H  0.53151202  0.42839767  0.21809214     0.08200
H1653       H  0.75313770  0.48452759  0.20926618     0.26600
H1654       H  0.53473469  0.34285481  0.19222270     0.21400
H1655       H  0.40097968  0.32487950  0.21949611     0.26700
H1656       H  0.53713863  0.46889977  0.20181758     0.15500
C1657       C  0.78866499  0.90246039  0.20929811    -0.11700
C1658       C  0.81450725  0.90056218  0.21486850     0.14800
C1659       C  0.83145792  0.93598580  0.21986242     0.01700
C1660       C  0.82581924  0.97424956  0.21884249    -0.16100
C1661       C  0.80311490  0.97774394  0.21296829    -0.10900
C1662       C  0.78207277  0.94014276  0.20837816     0.08400
C1663       C  0.82851409  0.86501165  0.21475801     0.09400
S1664       S  0.86243065  0.93538859  0.22745108    -0.25200
H1665       H  0.84156745  0.00264761  0.22245721     0.19700
S1666       S  0.74706230  0.93869077  0.20120339    -0.30900
H1667       H  0.77498514  0.87518640  0.20548834     0.10000
C1668       C  0.79622738  0.81744150  0.21505895     0.03200
C1669       C  0.81113478  0.78538791  0.21415418    -0.13200
C1670       C  0.85759378  0.80008255  0.21290351    -0.08900
C1671       C  0.89006071  0.84766370  0.21294561     0.06700
C1672       C  0.87519068  0.87948846  0.21379373    -0.14000
S1673       S  0.73611955  0.79761908  0.21653921    -0.30900
H1674       H  0.78639474  0.74886327  0.21414305     0.10900
S1675       S  0.95092525  0.86979568  0.21193027    -0.28000
H1676       H  0.90016724  0.91596617  0.21357815     0.08200
H1677       H  0.73197498  0.96656833  0.20433305     0.26600
H1678       H  0.72058714  0.75025929  0.21599262     0.21400
H1679       H  0.95119736  0.83315986  0.21542890     0.26700
H1680       H  0.84260455  0.88727445  0.22781615     0.15500
C1681       C  0.80772692  0.36306089  0.21027412    -0.11700
C1682       C  0.84762799  0.39457069  0.20674314     0.14800
C1683       C  0.87875996  0.38040583  0.20456251     0.01700
C1684       C  0.86915427  0.33524048  0.20594838    -0.16100
C1685       C  0.82933638  0.30385379  0.20955366    -0.10900
C1686       C  0.79808773  0.31812684  0.21164980     0.08400
C1687       C  0.85643280  0.44247891  0.20593635     0.09400
S1688       S  0.93156841  0.41838791  0.20012831    -0.25200
H1689       H  0.89339238  0.32479449  0.20431693     0.19700
S1690       S  0.74460887  0.28040202  0.21594975    -0.30900
H1691       H  0.78381503  0.37371406  0.21200149     0.10000
C1692       C  0.82897269  0.45283420  0.20159221     0.03200
C1693       C  0.83112996  0.49575066  0.20217699    -0.13200
C1694       C  0.85984231  0.52828549  0.20710476    -0.08900
C1695       C  0.89113200  0.51963015  0.21081706     0.06700
C1696       C  0.88871057  0.47685094  0.21027279    -0.14000
S1697       S  0.78941783  0.41030346  0.19558113    -0.30900
H1698       H  0.80751444  0.50224144  0.19922623     0.10900
S1699       S  0.93401917  0.56132833  0.21651510    -0.28000
H1700       H  0.91071568  0.46954100  0.21350075     0.08200
H1701       H  0.73518209  0.24130820  0.21207711     0.26600
H1702       H  0.77357024  0.43802059  0.19256916     0.21400
H1703       H  0.93728533  0.59998113  0.21311487     0.26700
H1704       H  0.91681218  0.44721621  0.19721429     0.15500
C1705       C  0.81994089  0.64607426  0.17308599    -0.11700
C1706       C  0.81945606  0.68518093  0.17057837     0.14800
C1707       C  0.81494322  0.71456883  0.17528586     0.01700
C1708       C  0.81234361  0.70505953  0.18234426    -0.16100
C1709       C  0.81502400  0.66715209  0.18494090    -0.10900
C1710       C  0.81747816  0.63656638  0.18017818     0.08400
C1711       C  0.82064081  0.69272610  0.16301686     0.09400
S1712       S  0.81410863  0.76578128  0.17264592    -0.25200
H1713       H  0.81008168  0.72884295  0.18587046     0.19700
S1714       S  0.81986576  0.58628501  0.18278473    -0.30900
H1715       H  0.82223995  0.62272478  0.16947397     0.10000
C1716       C  0.85940327  0.70224733  0.15899576     0.03200
C1717       C  0.85688594  0.70427705  0.15177012    -0.13200
C1718       C  0.81651495  0.69738424  0.14853469    -0.08900
C1719       C  0.77915252  0.69135007  0.15260730     0.06700
C1720       C  0.78138314  0.68860673  0.15977581    -0.14000
S1721       S  0.91162199  0.71087340  0.16305390    -0.30900
H1722       H  0.88526479  0.70843730  0.14861851     0.10900
S1723       S  0.72660701  0.68414465  0.14889229    -0.28000
H1724       H  0.75177040  0.68191712  0.16284659     0.08200
H1725       H  0.77931227  0.56840818  0.18670619     0.26600
H1726       H  0.93604578  0.71568651  0.15693892     0.21400
H1727       H  0.74667573  0.70858434  0.14277673     0.26700
H1728       H  0.84370327  0.77595830  0.16698179     0.15500
C1729       C  0.74585408  0.95601055  0.25443994    -0.11700
C1730       C  0.72158700  0.97834032  0.25254919     0.14800
C1731       C  0.68192779  0.96924650  0.25627957     0.01700
C1732       C  0.66857747  0.93968675  0.26197336    -0.16100
C1733       C  0.69346985  0.91819970  0.26402858    -0.10900
C1734       C  0.73208065  0.92580418  0.26008620     0.08400
C1735       C  0.73882578  0.01157790  0.24675519     0.09400
S1736       S  0.64768568  0.99539659  0.25420497    -0.25200
H1737       H  0.63892664  0.93426732  0.26492314     0.19700
S1738       S  0.76463057  0.89749770  0.26187109    -0.30900
H1739       H  0.77585030  0.96231419  0.25150300     0.10000
C1740       C  0.76430076  0.05948120  0.24790219     0.03200
C1741       C  0.77840548  0.08985684  0.24224069    -0.13200
C1742       C  0.76746556  0.07303551  0.23546899    -0.08900
C1743       C  0.74134236  0.02489976  0.23437596     0.06700
C1744       C  0.72804535  0.99481542  0.24000578    -0.14000
S1745       S  0.77947512  0.08159179  0.25657789    -0.30900
H1746       H  0.79857145  0.12666207  0.24306758     0.10900
S1747       S  0.72230953  0.99936779  0.22597020    -0.28000
H1748       H  0.70798701  0.95799751  0.23913715     0.08200
H1749       H  0.72643933  0.85550008  0.26392369     0.26600
H1750       H  0.80474117  0.12843979  0.25476134     0.21400
H1751       H  0.72099467  0.03675406  0.22292537     0.26700
H1752       H  0.65735928  0.00130707  0.24711435     0.15500
C1753       C  0.69731262  0.79499704  0.32469906    -0.11700
C1754       C  0.67026259  0.80555600  0.32895628     0.14800
C1755       C  0.63676996  0.81385878  0.32588638     0.01700
C1756       C  0.63392124  0.81543542  0.31867266    -0.16100
C1757       C  0.66320829  0.80797655  0.31440577    -0.10900
C1758       C  0.69361809  0.79523814  0.31748905     0.08400
C1759       C  0.68021569  0.81119353  0.33650034     0.09400
S1760       S  0.59755652  0.82398079  0.33089040    -0.25200
H1761       H  0.61008239  0.82460883  0.31639272     0.19700
S1762       S  0.72833679  0.77947051  0.31232397    -0.30900
H1763       H  0.72257457  0.78809789  0.32704208     0.10000
C1764       C  0.67427247  0.77421058  0.34071564     0.03200
C1765       C  0.68164372  0.78090973  0.34785985    -0.13200
C1766       C  0.69492656  0.82372840  0.35089463    -0.08900
C1767       C  0.70331610  0.86127005  0.34663758     0.06700
C1768       C  0.69596766  0.85467210  0.33950484    -0.14000
S1769       S  0.65345432  0.71749769  0.33712999    -0.30900
H1770       H  0.67421133  0.75192850  0.35116887     0.10900
S1771       S  0.72059801  0.91751553  0.35006167    -0.28000
H1772       H  0.70151632  0.88344260  0.33627886     0.08200
H1773       H  0.74249914  0.76136643  0.31774328     0.26600
H1774       H  0.65627085  0.69628318  0.34323955     0.21400
H1775       H  0.74320361  0.91344978  0.35590882     0.26700
H1776       H  0.59649965  0.79794492  0.33665850     0.15500
C1777       C  0.86139309  0.77903663  0.37404017    -0.11700
C1778       C  0.90416283  0.81602702  0.37611364     0.14800
C1779       C  0.90614339  0.85588572  0.37887101     0.01700
C1780       C  0.86578954  0.85779124  0.37954499    -0.16100
C1781       C  0.82281052  0.82052873  0.37766287    -0.10900
C1782       C  0.82065957  0.78074070  0.37483118     0.08400
C1783       C  0.94633002  0.81242592  0.37559546     0.09400
S1784       S  0.95899244  0.90538330  0.38172904    -0.25200
H1785       H  0.86791727  0.88873263  0.38164193     0.19700
S1786       S  0.76716328  0.73064689  0.37241682    -0.30900
H1787       H  0.85966300  0.74830733  0.37194415     0.10000
C1788       C  0.95542491  0.78644431  0.38041722     0.03200
C1789       C  0.99949373  0.79157708  0.38073099    -0.13200
C1790       C  0.03492331  0.82229646  0.37634382    -0.08900
C1791       C  0.02482087  0.84628422  0.37123991     0.06700
C1792       C  0.98058989  0.84062759  0.37087722    -0.14000
S1793       S  0.91218810  0.74973598  0.38657147    -0.30900
H1794       H  0.00703519  0.77305968  0.38462325     0.10900
S1795       S  0.06756384  0.88791089  0.36548884    -0.28000
H1796       H  0.97370459  0.86084338  0.36719800     0.08200
H1797       H  0.74079151  0.73512168  0.37764994     0.26600
H1798       H  0.93744552  0.73112279  0.38960247     0.21400
H1799       H  0.10156982  0.90915877  0.37059315     0.26700
H1800       H  0.97913993  0.88054333  0.38438025     0.15500
C1801       C  0.38960166  0.79146674  0.38118956    -0.11700
C1802       C  0.43210548  0.83205166  0.38194838     0.14800
C1803       C  0.43317568  0.87460321  0.38251759     0.01700
C1804       C  0.39217409  0.87581020  0.38191395    -0.16100
C1805       C  0.35008678  0.83538158  0.38077226    -0.10900
C1806       C  0.34872407  0.79260632  0.38069960     0.08400
C1807       C  0.47435442  0.82880568  0.38127116     0.09400
S1808       S  0.48579063  0.92856577  0.38372448    -0.25200
H1809       H  0.39344122  0.90872333  0.38199923     0.19700
S1810       S  0.29590396  0.73836839  0.37987645    -0.30900
H1811       H  0.38839252  0.75867027  0.38075671     0.10000
C1812       C  0.48401554  0.80184583  0.38582383     0.03200
C1813       C  0.52018321  0.79380273  0.38431999    -0.13200
C1814       C  0.54703893  0.81217798  0.37835660    -0.08900
C1815       C  0.53931757  0.84190380  0.37408357     0.06700
C1816       C  0.50269679  0.84921297  0.37552078    -0.14000
S1817       S  0.44989731  0.77705944  0.39349162    -0.30900
H1818       H  0.52627986  0.77142524  0.38765184     0.10900
S1819       S  0.57501739  0.87183200  0.36677571    -0.28000
H1820       H  0.49559975  0.87024400  0.37203759     0.08200
H1821       H  0.26980873  0.75230812  0.38377083     0.26600
H1822       H  0.47286071  0.75421416  0.39585591     0.21400
H1823       H  0.61597567  0.87779749  0.36973741     0.26700
H1824       H  0.50983037  0.90990294  0.38712147     0.15500
C1825       C  0.36312532  0.79792364  0.28873113    -0.11700
C1826       C  0.39599314  0.83930666  0.29179108     0.14800
C1827       C  0.38228096  0.87058433  0.29409020     0.01700
C1828       C  0.33645171  0.86016761  0.29315404    -0.16100
C1829       C  0.30373214  0.81907511  0.28994492    -0.10900
C1830       C  0.31745614  0.78727878  0.28784628     0.08400
C1831       C  0.44446443  0.84916855  0.29210916     0.09400
S1832       S  0.42178617  0.92465988  0.29810554    -0.25200
H1833       H  0.32657344  0.88485026  0.29478850     0.19700
S1834       S  0.27839549  0.73200010  0.28409524    -0.30900
H1835       H  0.37328271  0.77365374  0.28698092     0.10000
C1836       C  0.45815836  0.82578704  0.29675252     0.03200
C1837       C  0.50205564  0.83041471  0.29613804    -0.13200
C1838       C  0.53217978  0.85674004  0.29080512    -0.08900
C1839       C  0.51951626  0.88294511  0.28650614     0.06700
C1840       C  0.47597344  0.87871554  0.28718851    -0.14000
S1841       S  0.41855966  0.78780782  0.30319734    -0.30900
H1842       H  0.51118989  0.81008305  0.29943077     0.10900
S1843       S  0.55666500  0.92115924  0.27987314    -0.28000
H1844       H  0.46582517  0.89716138  0.28365610     0.08200
H1845       H  0.24055871  0.72452809  0.28808731     0.26600
H1846       H  0.44873816  0.77544771  0.30631314     0.21400
H1847       H  0.59796955  0.93102516  0.28318232     0.26700
H1848       H  0.45139359  0.91047637  0.30089220     0.15500
C1849       C  0.92752125  0.80873931  0.27988629    -0.11700
C1850       C  0.89563382  0.79495336  0.28527592     0.14800
C1851       C  0.89820775  0.76814257  0.29069129     0.01700
C1852       C  0.93563522  0.76074011  0.29105839    -0.16100
C1853       C  0.97054812  0.77858326  0.28604074    -0.10900
C1854       C  0.96420511  0.79991132  0.28010912     0.08400
C1855       C  0.86481747  0.81472798  0.28571782     0.09400
S1856       S  0.85688875  0.74587586  0.29760630    -0.25200
H1857       H  0.93876682  0.74304057  0.29553196     0.19700
S1858       S  0.00357512  0.82071573  0.27295177    -0.30900
H1859       H  0.92514707  0.82854898  0.27563998     0.10000
C1860       C  0.87603652  0.85241845  0.29008219     0.03200
C1861       C  0.84496144  0.86837738  0.29086957    -0.13200
C1862       C  0.80221800  0.84735199  0.28744693    -0.08900
C1863       C  0.79168078  0.81026033  0.28289989     0.06700
C1864       C  0.82333233  0.79488117  0.28201232    -0.14000
S1865       S  0.92981206  0.87990542  0.29476778    -0.30900
H1866       H  0.85384919  0.89717914  0.29427235     0.10900
S1867       S  0.73737828  0.77888475  0.27848592    -0.28000
H1868       H  0.81464539  0.76585762  0.27865876     0.08200
H1869       H  0.00264481  0.77863444  0.27205633     0.26600
H1870       H  0.92492374  0.91553792  0.29768601     0.21400
H1871       H  0.71148242  0.77379157  0.28444737     0.26700
H1872       H  0.81962226  0.74170264  0.29370666     0.15500
C1873       C  0.18772212  0.88165994  0.32443294    -0.11700
C1874       C  0.18362440  0.84625771  0.32874168     0.14800
C1875       C  0.17867313  0.80561309  0.32573058     0.01700
C1876       C  0.17420252  0.79989734  0.31853546    -0.16100
C1877       C  0.17622818  0.83467158  0.31424203    -0.10900
C1878       C  0.18567352  0.87698584  0.31726426     0.08400
C1879       C  0.18387023  0.85261878  0.33633028     0.09400
S1880       S  0.17734608  0.75974987  0.33078824    -0.25200
H1881       H  0.16761603  0.76756391  0.31630674     0.19700
S1882       S  0.19631606  0.92684449  0.31226893    -0.30900
H1883       H  0.19275663  0.91339891  0.32668401     0.10000
C1884       C  0.22340665  0.88645507  0.33979074     0.03200
C1885       C  0.22318222  0.88905738  0.34700677    -0.13200
C1886       C  0.18409633  0.85911595  0.35085253    -0.08900
C1887       C  0.14354728  0.82757380  0.34735435     0.06700
C1888       C  0.14391868  0.82436395  0.34014389    -0.14000
S1889       S  0.27550159  0.92374451  0.33510413    -0.30900
H1890       H  0.25456504  0.91249938  0.34971617     0.10900
S1891       S  0.09178272  0.78797266  0.35186413    -0.28000
H1892       H  0.11316693  0.79896403  0.33749272     0.08200
H1893       H  0.21726148  0.91732737  0.30673559     0.26600
H1894       H  0.30056490  0.95147607  0.34073100     0.21400
H1895       H  0.09697990  0.81899677  0.35711618     0.26700
H1896       H  0.20539935  0.78785942  0.33617795     0.15500
C1897       C  0.04396062  0.77923691  0.25356387    -0.11700
C1898       C  0.01596808  0.73180509  0.25234361     0.14800
C1899       C  0.02082140  0.70040754  0.25666129     0.01700
C1900       C  0.05277602  0.71697403  0.26208306    -0.16100
C1901       C  0.07978045  0.76434397  0.26343265    -0.10900
C1902       C  0.07577758  0.79576748  0.25901450     0.08400
C1903       C  0.98438237  0.71625634  0.24627784     0.09400
S1904       S  0.98656451  0.63875359  0.25565706    -0.25200
H1905       H  0.05529813  0.69245331  0.26544669     0.19700
S1906       S  0.11170643  0.85727121  0.25986079    -0.30900
H1907       H  0.04159349  0.80363469  0.25015396     0.10000
C1908       C  0.94776989  0.72539398  0.24565492     0.03200
C1909       C  0.91932067  0.71021971  0.23976936    -0.13200
C1910       C  0.92616394  0.68538908  0.23454544    -0.08900
C1911       C  0.96317457  0.67682998  0.23516275     0.06700
C1912       C  0.99164038  0.69222394  0.24098831    -0.14000
S1913       S  0.93621508  0.75492520  0.25244736    -0.30900
H1914       H  0.89123123  0.71714160  0.23926210     0.10900
S1915       S  0.97748785  0.64825645  0.22860773    -0.28000
H1916       H  0.02019095  0.68586780  0.24137176     0.08200
H1917       H  0.15074687  0.85594134  0.26219348     0.26600
H1918       H  0.89687267  0.75242471  0.24942955     0.21400
H1919       H  0.96134738  0.66256213  0.22296447     0.26700
H1920       H  0.94723081  0.63828249  0.25304113     0.15500
C1921       C  0.94616623  0.14844869  0.37283901    -0.11700
C1922       C  0.93460205  0.10877856  0.37674842     0.14800
C1923       C  0.96697132  0.10940249  0.38147428     0.01700
C1924       C  0.00930338  0.14951455  0.38230945    -0.16100
C1925       C  0.02131418  0.18960472  0.37846771    -0.10900
C1926       C  0.98901130  0.18892175  0.37367621     0.08400
C1927       C  0.88843881  0.06724284  0.37606585     0.09400
S1928       S  0.95656307  0.06028023  0.38667136    -0.25200
H1929       H  0.03373639  0.14884885  0.38591121     0.19700
S1930       S  0.99940480  0.23874542  0.36873025    -0.30900
H1931       H  0.92128828  0.14818489  0.36923601     0.10000
C1932       C  0.85579805  0.05454355  0.38137590     0.03200
C1933       C  0.81773011  0.00981946  0.38151375    -0.13200
C1934       C  0.81181735  0.97688944  0.37652105    -0.08900
C1935       C  0.84311411  0.99095303  0.37092735     0.06700
C1936       C  0.88049073  0.03614366  0.37070496    -0.14000
S1937       S  0.86431677  0.09448225  0.38822679    -0.30900
H1938       H  0.79354344  0.99976208  0.38573196     0.10900
S1939       S  0.84073434  0.95194613  0.36436161    -0.28000
H1940       H  0.90582982  0.04581805  0.36665132     0.08200
H1941       H  0.02301332  0.27039812  0.37405405     0.26600
H1942       H  0.82586972  0.06418828  0.39218570     0.21400
H1943       H  0.83670089  0.91822064  0.36909451     0.26700
H1944       H  0.92712422  0.02600643  0.38202755     0.15500
C1945       C  0.46546886  0.56755248  0.37430072    -0.11700
C1946       C  0.43793317  0.56613024  0.37981673     0.14800
C1947       C  0.45730845  0.59996698  0.38502529     0.01700
C1948       C  0.50252183  0.63651451  0.38430105    -0.16100
C1949       C  0.52880976  0.63999846  0.37847329    -0.10900
C1950       C  0.51071754  0.60381628  0.37360802     0.08400
C1951       C  0.38795236  0.53297302  0.37942148     0.09400
S1952       S  0.42484310  0.60082152  0.39235204    -0.25200
H1953       H  0.51598343  0.66415653  0.38805310     0.19700
S1954       S  0.54312260  0.60298758  0.36627122    -0.30900
H1955       H  0.45088013  0.54132439  0.37033520     0.10000
C1956       C  0.35842867  0.54462621  0.37589405     0.03200
C1957       C  0.31191481  0.51144642  0.37507679    -0.13200
C1958       C  0.29398908  0.46675059  0.37775207    -0.08900
C1959       C  0.32367779  0.45535478  0.38135227     0.06700
C1960       C  0.37027462  0.48854633  0.38215004    -0.14000
S1961       S  0.38025979  0.60161011  0.37230916    -0.30900
H1962       H  0.28925971  0.52032862  0.37233660     0.10900
S1963       S  0.30494899  0.39841111  0.38461532    -0.28000
H1964       H  0.39316311  0.47943179  0.38477276     0.08200
H1965       H  0.58658192  0.62927151  0.36938507     0.26600
H1966       H  0.33796325  0.59498350  0.36982237     0.21400
H1967       H  0.27945353  0.37628154  0.37865777     0.26700
H1968       H  0.39422127  0.55313653  0.39261770     0.15500
C1969       C  0.22152464  0.14730764  0.38041448    -0.11700
C1970       C  0.19669462  0.11408335  0.37536563     0.14800
C1971       C  0.16874254  0.12188721  0.37071079     0.01700
C1972       C  0.16476953  0.16149582  0.37140007    -0.16100
C1973       C  0.18757530  0.19348239  0.37671746    -0.10900
C1974       C  0.21751848  0.18675770  0.38112012     0.08400
C1975       C  0.19430266  0.06861332  0.37593127     0.09400
S1976       S  0.13450173  0.08090854  0.36413486    -0.25200
H1977       H  0.14155460  0.16593755  0.36800581     0.19700
S1978       S  0.25078680  0.22664814  0.38786867    -0.30900
H1979       H  0.24281663  0.14150419  0.38402959     0.10000
C1980       C  0.22710519  0.05936508  0.37294830     0.03200
C1981       C  0.22371182  0.01605817  0.37401370    -0.13200
C1982       C  0.18830434  0.98199243  0.37807303    -0.08900
C1983       C  0.15459391  0.99117859  0.38084127     0.06700
C1984       C  0.15840904  0.03430349  0.37979794    -0.14000
S1985       S  0.27271422  0.10252750  0.36772113    -0.30900
H1986       H  0.24890287  0.00889872  0.37176210     0.10900
S1987       S  0.10474974  0.94753853  0.38541943    -0.28000
H1988       H  0.13318233  0.04157785  0.38201246     0.08200
H1989       H  0.25709245  0.26616245  0.38435651     0.26600
H1990       H  0.29320183  0.07613048  0.36603595     0.21400
H1991       H  0.08117621  0.97215867  0.38599896     0.26700
H1992       H  0.16186260  0.06035840  0.36346730     0.15500
C1993       C  0.17255392  0.56107331  0.38195324    -0.11700
C1994       C  0.13466271  0.56339326  0.37936842     0.14800
C1995       C  0.09630690  0.52260194  0.37683934     0.01700
C1996       C  0.09817157  0.48169192  0.37652782    -0.16100
C1997       C  0.13657472  0.47989597  0.37901753    -0.10900
C1998       C  0.17347548  0.51989091  0.38195364     0.08400
C1999       C  0.13935726  0.60988945  0.37866071     0.09400
S2000       S  0.04438938  0.52065369  0.37388923    -0.25200
H2001       H  0.06980247  0.45124398  0.37423107     0.19700
S2002       S  0.22494655  0.52190908  0.38512623    -0.30900
H2003       H  0.20254128  0.59212740  0.38378721     0.10000
C2004       C  0.15110023  0.64006175  0.38432649     0.03200
C2005       C  0.16516064  0.68666423  0.38319613    -0.13200
C2006       C  0.16717928  0.70416618  0.37650703    -0.08900
C2007       C  0.15002407  0.67230034  0.37093995     0.06700
C2008       C  0.13775050  0.62623772  0.37205729    -0.14000
S2009       S  0.14874587  0.61937242  0.39301819    -0.30900
H2010       H  0.17632538  0.70987986  0.38755465     0.10900
S2011       S  0.14335082  0.68748263  0.36225377    -0.28000
H2012       H  0.12806939  0.60316627  0.36768174     0.08200
H2013       H  0.20170505  0.48010710  0.38873282     0.26600
H2014       H  0.16706945  0.66225458  0.39633576     0.21400
H2015       H  0.12294284  0.71329999  0.36433816     0.26700
H2016       H  0.04900342  0.55686231  0.37808413     0.15500
C2017       C  0.87722551  0.07920970  0.28155316    -0.11700
C2018       C  0.90628471  0.09868169  0.28728050     0.14800
C2019       C  0.88917069  0.08145967  0.29391923     0.01700
C2020       C  0.84479577  0.04394849  0.29465230    -0.16100
C2021       C  0.81675886  0.02127624  0.28889599    -0.10900
C2022       C  0.83264204  0.04121354  0.28227395     0.08400
C2023       C  0.95465396  0.13592220  0.28628448     0.09400
S2024       S  0.92323261  0.10366450  0.30167038    -0.25200
H2025       H  0.83355941  0.03058916  0.29980766     0.19700
S2026       S  0.79854294  0.02026941  0.27452608    -0.30900
H2027       H  0.88970182  0.09329859  0.27646379     0.10000
C2028       C  0.98771242  0.12677876  0.28335950     0.03200
C2029       C  0.03459825  0.16010917  0.28380465    -0.13200
C2030       C  0.04894648  0.20204347  0.28718540    -0.08900
C2031       C  0.01564091  0.21261503  0.28957575     0.06700
C2032       C  0.96893277  0.17954528  0.28909255    -0.14000
S2033       S  0.97089640  0.07098363  0.27974323    -0.30900
H2034       H  0.06026394  0.15199712  0.28203225     0.10900
S2035       S  0.03081719  0.26684331  0.29360574    -0.28000
H2036       H  0.94362607  0.18694095  0.29125307     0.08200
H2037       H  0.75797688  0.01365843  0.27767142     0.26600
H2038       H  0.01359597  0.08349947  0.27671728     0.21400
H2039       H  0.07325633  0.29270882  0.29023662     0.26700
H2040       H  0.96481877  0.11164407  0.29873909     0.15500
C2041       C  0.40366852  0.51780352  0.28548612    -0.11700
C2042       C  0.40862285  0.54895643  0.29068294     0.14800
C2043       C  0.37323802  0.53561106  0.29560685     0.01700
C2044       C  0.33281649  0.49276627  0.29499779    -0.16100
C2045       C  0.32655454  0.46280042  0.28952744    -0.10900
C2046       C  0.36330517  0.47497059  0.28487375     0.08400
C2047       C  0.44782621  0.59697394  0.29027351     0.09400
S2048       S  0.37635308  0.57307868  0.30249412    -0.25200
H2049       H  0.30483283  0.48417841  0.29855451     0.19700
S2050       S  0.36010098  0.43811375  0.27787850    -0.30900
H2051       H  0.43068797  0.52774705  0.28169927     0.10000
C2052       C  0.49319036  0.60876036  0.29204960     0.03200
C2053       C  0.52887736  0.65489726  0.29147990    -0.13200
C2054       C  0.52021507  0.68928132  0.28900149    -0.08900
C2055       C  0.47448970  0.67709108  0.28726317     0.06700
C2056       C  0.43912445  0.63134755  0.28789130    -0.14000
S2057       S  0.50548316  0.56504039  0.29503715    -0.30900
H2058       H  0.56379817  0.66404491  0.29279073     0.10900
S2059       S  0.45857675  0.71839618  0.28438842    -0.28000
H2060       H  0.40429555  0.62239209  0.28652260     0.08200
H2061       H  0.32911410  0.39652646  0.28115906     0.26600
H2062       H  0.55349169  0.59364076  0.29549462     0.21400
H2063       H  0.48995947  0.75369725  0.28871419     0.26700
H2064       H  0.42453925  0.59692506  0.30311714     0.15500
C2065       C  0.20269574  0.10459921  0.29418510    -0.11700
C2066       C  0.18501811  0.08137196  0.28792754     0.14800
C2067       C  0.17676519  0.10415249  0.28245739     0.01700
C2068       C  0.18342205  0.14832115  0.28350499    -0.16100
C2069       C  0.19821922  0.17048592  0.28991254    -0.10900
C2070       C  0.20993326  0.14907828  0.29520480     0.08400
C2071       C  0.16934059  0.03160653  0.28761946     0.09400
S2072       S  0.15446599  0.07743837  0.27420242    -0.25200
H2073       H  0.17442258  0.16440131  0.27939629     0.19700
S2074       S  0.23377639  0.17650434  0.30336253    -0.30900
H2075       H  0.20947846  0.08734669  0.29837725     0.10000
C2076       C  0.19911440  0.01492476  0.28592756     0.03200
C2077       C  0.18246508  0.96717313  0.28604093    -0.13200
C2078       C  0.13671862  0.93607597  0.28788851    -0.08900
C2079       C  0.10671166  0.95314718  0.28930248     0.06700
C2080       C  0.12337750  0.00050988  0.28921528    -0.14000
S2081       S  0.25820852  0.05457695  0.28370306    -0.30900
H2082       H  0.20546785  0.95414742  0.28495898     0.10900
S2083       S  0.04656490  0.91617331  0.29116206    -0.28000
H2084       H  0.10032178  0.01333641  0.29042075     0.08200
H2085       H  0.25587955  0.22173057  0.30075061     0.26600
H2086       H  0.27090239  0.02112986  0.28248650     0.21400
H2087       H  0.04099082  0.88088570  0.28669080     0.26700
H2088       H  0.17308451  0.04814999  0.27435123     0.15500
C2089       C  0.12547471  0.50142393  0.29359785    -0.11700
C2090       C  0.14912368  0.54039300  0.28937938     0.14800
C2091       C  0.17972920  0.54110271  0.28433812     0.01700
C2092       C  0.18574554  0.50302661  0.28360809    -0.16100
C2093       C  0.16245284  0.46395350  0.28784239    -0.10900
C2094       C  0.13128474  0.46303736  0.29282751     0.08400
C2095       C  0.13995755  0.57907302  0.29008053     0.09400
S2096       S  0.21212703  0.58933094  0.27862774    -0.25200
H2097       H  0.20991825  0.50451308  0.27978648     0.19700
S2098       S  0.09603891  0.41326927  0.29807936    -0.30900
H2099       H  0.10135807  0.50042798  0.29738575     0.10000
C2100       C  0.11289537  0.58598482  0.28519229     0.03200
C2101       C  0.11197407  0.62730677  0.28523946    -0.13200
C2102       C  0.13762351  0.66217214  0.29007654    -0.08900
C2103       C  0.16091308  0.65291101  0.29541121     0.06700
C2104       C  0.16219611  0.61173971  0.29530508    -0.14000
S2105       S  0.08187822  0.54336084  0.27861890    -0.30900
H2106       H  0.09358490  0.63380972  0.28119898     0.10900
S2107       S  0.19407372  0.69415089  0.30199932    -0.28000
H2108       H  0.18264986  0.60618757  0.29911280     0.08200
H2109       H  0.08907763  0.38100398  0.29291883     0.26600
H2110       H  0.06178445  0.56663281  0.27538725     0.21400
H2111       H  0.15749792  0.70061639  0.30400488     0.26700
H2112       H  0.21463008  0.62366755  0.28302591     0.15500
C2113       C  0.16620279  0.29900090  0.34005555    -0.11700
C2114       C  0.16002675  0.33393893  0.33711490     0.14800
C2115       C  0.15076434  0.36192602  0.34145456     0.01700
C2116       C  0.14880132  0.35507782  0.34858493    -0.16100
C2117       C  0.15682760  0.32147989  0.35157157    -0.10900
C2118       C  0.16476425  0.29252156  0.34723052     0.08400
C2119       C  0.16375101  0.34062828  0.32952792     0.09400
S2120       S  0.14367415  0.40857536  0.33825930    -0.25200
H2121       H  0.14314872  0.37782654  0.35188015     0.19700
S2122       S  0.17787499  0.25022593  0.35055156    -0.30900
H2123       H  0.17323619  0.27733455  0.33673748     0.10000
C2124       C  0.20637898  0.35837667  0.32612778     0.03200
C2125       C  0.20800515  0.36153682  0.31889472    -0.13200
C2126       C  0.16779301  0.34711836  0.31500378    -0.08900
C2127       C  0.12563476  0.33219143  0.31845976     0.06700
C2128       C  0.12402043  0.32891938  0.32566434    -0.14000
S2129       S  0.25854691  0.37614746  0.33100100    -0.30900
H2130       H  0.24015289  0.37244127  0.31623985     0.10900
S2131       S  0.07255259  0.31569047  0.31393864    -0.28000
H2132       H  0.09139923  0.31627720  0.32827584     0.08200
H2133       H  0.14156408  0.23158680  0.35531427     0.26600
H2134       H  0.28851676  0.38966794  0.32532606     0.21400
H2135       H  0.09311630  0.34163593  0.30796362     0.26700
H2136       H  0.17495616  0.42082879  0.33277737     0.15500
C2137       C  0.25863166  0.20609756  0.24578949    -0.11700
C2138       C  0.28457286  0.25207140  0.24790685     0.14800
C2139       C  0.32579099  0.28204152  0.24442868     0.01700
C2140       C  0.33896727  0.26596606  0.23871876    -0.16100
C2141       C  0.31258975  0.22009145  0.23647281    -0.10900
C2142       C  0.27245144  0.18959895  0.24020555     0.08400
C2143       C  0.26814302  0.26742628  0.25384022     0.09400
S2144       S  0.36275393  0.34126761  0.24694412    -0.25200
H2145       H  0.36983454  0.28980868  0.23594871     0.19700
S2146       S  0.23821477  0.12899757  0.23830721    -0.30900
H2147       H  0.22755485  0.18275859  0.24856228     0.10000
C2148       C  0.24673517  0.29406667  0.25295515     0.03200
C2149       C  0.23288409  0.30878475  0.25878255    -0.20400
C2150       C  0.23958967  0.29687122  0.26545864    -0.08900
C2151       C  0.26156107  0.27055142  0.26630100     0.06700
C2152       C  0.27491732  0.25559991  0.26049523    -0.14000
S2153       S  0.23600769  0.30815866  0.24440604    -0.30900
H2154       H  0.21595380  0.32882584  0.25814941     0.10900
S2155       S  0.27569268  0.25670719  0.27460768    -0.28000
H2156       H  0.29184470  0.23554060  0.26116673     0.08200
H2157       H  0.27613614  0.12354373  0.23677793     0.26600
H2158       H  0.21451574  0.33290759  0.24648814     0.21400
H2159       H  0.28298133  0.29711453  0.27790277     0.26700
H2160       H  0.35161077  0.33540518  0.25398994     0.15500
C2161       C  0.14108870  0.41660634  0.41182791    -0.11700
C2162       C  0.10006571  0.38532458  0.41513892     0.14800
C2163       C  0.07522539  0.33958704  0.41271109     0.01700
C2164       C  0.09019393  0.32698336  0.40680483    -0.16100
C2165       C  0.13043883  0.35864991  0.40329417    -0.10900
C2166       C  0.15711771  0.40361291  0.40607864     0.08400
C2167       C  0.08283201  0.40188183  0.42087406     0.09400
S2168       S  0.02390003  0.29580545  0.41689172    -0.25200
H2169       H  0.06954535  0.29219196  0.40487404     0.19700
S2170       S  0.21237999  0.44588886  0.40271449    -0.30900
H2171       H  0.16082161  0.45155619  0.41374550     0.10000
C2172       C  0.10658390  0.41664939  0.42719938     0.03200
C2173       C  0.08895764  0.43215356  0.43243574    -0.13200
C2174       C  0.04750577  0.43260211  0.43157237    -0.08900
C2175       C  0.02408303  0.41818182  0.42518234     0.06700
C2176       C  0.04192480  0.40300751  0.41993713    -0.14000
S2177       S  0.15775689  0.41304735  0.42878927    -0.30900
H2178       H  0.10683893  0.44245268  0.43733377     0.10900
S2179       S  0.97210576  0.41936490  0.42330535    -0.28000
H2180       H  0.02387737  0.39217355  0.41504826     0.08200
H2181       H  0.22710390  0.41398609  0.40147386     0.26600
H2182       H  0.16887142  0.43532191  0.43522600     0.21400
H2183       H  0.98560646  0.46072583  0.42685819     0.26700
H2184       H  0.03656195  0.31384351  0.42359312     0.15500
C2185       C  0.03548793  0.48895612  0.50755111    -0.11700
C2186       C  0.99259107  0.47663799  0.50455664     0.14800
C2187       C  0.95602323  0.46999753  0.50885056     0.01700
C2188       C  0.96315183  0.47610535  0.51595789    -0.16100
C2189       C  0.00556044  0.48714357  0.51903318    -0.10900
C2190       C  0.04226631  0.49386692  0.51473062     0.08400
C2191       C  0.98675771  0.46970362  0.49698237     0.09400
S2192       S  0.89907968  0.45276382  0.50565203    -0.25200
H2193       H  0.93459165  0.47112993  0.51915020     0.19700
S2194       S  0.09746357  0.50640420  0.51806384    -0.30900
H2195       H  0.06361251  0.49376772  0.50427165     0.10000
C2196       C  0.98289927  0.50126987  0.49259216     0.03200
C2197       C  0.98040370  0.49447204  0.48540942    -0.13200
C2198       C  0.98184071  0.45684065  0.48255102    -0.08900
C2199       C  0.98329490  0.42413320  0.48699217     0.06700
C2200       C  0.98591980  0.43095711  0.49413244    -0.14000
S2201       S  0.98474753  0.55198012  0.49609693    -0.30900
H2202       H  0.98068984  0.52019689  0.48198872     0.10900
S2203       S  0.98492218  0.37454356  0.48379443    -0.28000
H2204       H  0.98828992  0.40634824  0.49749541     0.08200
H2205       H  0.07927894  0.47462081  0.52353137     0.26600
H2206       H  0.98135056  0.57068205  0.48976617     0.21400
H2207       H  0.96207533  0.37129783  0.47754464     0.26700
H2208       H  0.90030794  0.42802592  0.49990371     0.15500
C2209       C  0.16387035  0.67539784  0.45146483    -0.11700
C2210       C  0.20120457  0.69611286  0.45606348     0.14800
C2211       C  0.20413750  0.66947731  0.46148871     0.01700
C2212       C  0.16950325  0.62359983  0.46230622    -0.16100
C2213       C  0.13260188  0.60232983  0.45763660    -0.10900
C2214       C  0.12977601  0.62891074  0.45218192     0.08400
C2215       C  0.23588185  0.74582307  0.45533659     0.09400
S2216       S  0.25228226  0.69144494  0.46737207    -0.25200
H2217       H  0.17274259  0.60359512  0.46644545     0.19700
S2218       S  0.08218357  0.60610458  0.44625488    -0.30900
H2219       H  0.16099126  0.69574683  0.44734830     0.10000
C2220       C  0.26790003  0.76248398  0.44987737     0.03200
C2221       C  0.30459242  0.80822167  0.45004267    -0.13200
C2222       C  0.31078803  0.83697576  0.45568482    -0.08900
C2223       C  0.27626180  0.82144204  0.46078900     0.06700
C2224       C  0.23937872  0.77618620  0.46057270    -0.14000
S2225       S  0.26506333  0.72423372  0.44311707    -0.30900
H2226       H  0.33075275  0.82024148  0.44608898     0.10900
S2227       S  0.27833815  0.85741753  0.46783190    -0.28000
H2228       H  0.21423914  0.76387238  0.46468903     0.08200
H2229       H  0.04953089  0.58684291  0.45157020     0.26600
H2230       H  0.30267419  0.75730257  0.43928018     0.21400
H2231       H  0.30424238  0.89932820  0.46428515     0.26700
H2232       H  0.28554929  0.71986734  0.46252030     0.15500
C2233       C  0.71415312  0.18203494  0.46231679    -0.11700
C2234       C  0.74411210  0.19283311  0.45671013     0.14800
C2235       C  0.72981669  0.16239778  0.45104583     0.01700
C2236       C  0.68453037  0.12540078  0.45072494    -0.16100
C2237       C  0.65286304  0.11616664  0.45609412    -0.10900
C2238       C  0.66917254  0.14361957  0.46215859     0.08400
C2239       C  0.78648113  0.23923122  0.45635153     0.09400
S2240       S  0.76736775  0.17046486  0.44390363    -0.25200
H2241       H  0.67376847  0.10405409  0.44614619     0.19700
S2242       S  0.63303350  0.13252585  0.46961798    -0.30900
H2243       H  0.72532063  0.20517697  0.46668980     0.10000
C2244       C  0.78755056  0.27357548  0.45202225     0.03200
C2245       C  0.82815583  0.31614675  0.45141102    -0.13200
C2246       C  0.86832729  0.32624210  0.45509748    -0.08900
C2247       C  0.86692483  0.29220647  0.45960159     0.06700
C2248       C  0.82600841  0.24926663  0.46021304    -0.14000
S2249       S  0.73664840  0.26362744  0.44735265    -0.30900
H2250       H  0.82838029  0.34223761  0.44808214     0.10900
S2251       S  0.91639531  0.30060242  0.46444890    -0.28000
H2252       H  0.82534352  0.22308982  0.46357624     0.08200
H2253       H  0.66790167  0.16257935  0.47416191     0.26600
H2254       H  0.75483936  0.30826153  0.44461451     0.21400
H2255       H  0.94858525  0.32671689  0.45932561     0.26700
H2256       H  0.80844408  0.19255710  0.44774265     0.15500
C2257       C  0.31137946  0.86933829  0.41064866    -0.11700
C2258       C  0.31746556  0.90790439  0.41432523     0.14800
C2259       C  0.29377346  0.93052698  0.41214901     0.01700
C2260       C  0.26574904  0.91507334  0.40626152    -0.16100
C2261       C  0.25948752  0.87645121  0.40249634    -0.10900
C2262       C  0.28249876  0.85296133  0.40482784     0.08400
C2263       C  0.34935571  0.92408849  0.42033821     0.09400
S2264       S  0.29744509  0.97899735  0.41672293    -0.25200
H2265       H  0.24862708  0.93361156  0.40462756     0.19700
S2266       S  0.27506446  0.80141117  0.40066590    -0.30900
H2267       H  0.32934706  0.85190097  0.41240045     0.10000
C2268       C  0.33899833  0.89788937  0.42644118     0.03200
C2269       C  0.37045541  0.91394602  0.43194312    -0.13200
C2270       C  0.41216389  0.95622256  0.43157772    -0.08900
C2271       C  0.42176716  0.98285062  0.42547329     0.06700
C2272       C  0.39072612  0.96622615  0.41992056    -0.14000
S2273       S  0.28489547  0.84472927  0.42733425    -0.30900
H2274       H  0.36202322  0.89359064  0.43661552     0.10900
S2275       S  0.47347109  0.03744307  0.42433148    -0.28000
H2276       H  0.39876070  0.98644507  0.41522966     0.08200
H2277       H  0.31009814  0.79845708  0.40421762     0.26600
H2278       H  0.29339489  0.83264651  0.43390752     0.21400
H2279       H  0.46108841  0.05898851  0.42943045     0.26700
H2280       H  0.30262295  0.96467269  0.42332576     0.15500
C2281       C  0.52890979  0.98060480  0.50734884    -0.11700
C2282       C  0.51075865  0.00644551  0.50440552     0.14800
C2283       C  0.49127855  0.02577613  0.50875223     0.01700
C2284       C  0.49061759  0.01913132  0.51589103    -0.16100
C2285       C  0.50943934  0.99394636  0.51887320    -0.10900
C2286       C  0.52912136  0.97475669  0.51451624     0.08400
C2287       C  0.50904402  0.00927436  0.49677729     0.09400
S2288       S  0.46732311  0.05981388  0.50552204    -0.25200
H2289       H  0.47617582  0.03474525  0.51917833     0.19700
S2290       S  0.55730515  0.94480624  0.51776442    -0.30900
H2291       H  0.54358035  0.96537481  0.50403117     0.10000
C2292       C  0.54889586  0.03527766  0.49274760     0.03200
C2293       C  0.54526469  0.03409092  0.48549680    -0.13200
C2294       C  0.50259598  0.00699618  0.48224903    -0.08900
C2295       C  0.46265628  0.98266452  0.48632917     0.06700
C2296       C  0.46633114  0.98394954  0.49350831    -0.14000
S2297       S  0.60428573  0.06920800  0.49683597    -0.30900
H2298       H  0.57582391  0.05232002  0.48235677     0.10900
S2299       S  0.40597134  0.94804270  0.48266051    -0.28000
H2300       H  0.43565504  0.96426091  0.49658645     0.08200
H2301       H  0.57903335  0.97479881  0.52333893     0.26600
H2302       H  0.62993005  0.08617527  0.49073196     0.21400
H2303       H  0.41442422  0.97455323  0.47663640     0.26700
H2304       H  0.49645301  0.07778068  0.49977433     0.15500
C2305       C  0.29697324  0.81085236  0.53861743    -0.11700
C2306       C  0.28330732  0.76965798  0.54221390     0.14800
C2307       C  0.31593905  0.76565344  0.54631544     0.01700
C2308       C  0.36035397  0.80319801  0.54703182    -0.16100
C2309       C  0.37399696  0.84529400  0.54366758    -0.10900
C2310       C  0.34170909  0.84874300  0.53932971     0.08400
C2311       C  0.23413360  0.73277032  0.54218985     0.09400
S2312       S  0.30258647  0.71359540  0.55087671    -0.25200
H2313       H  0.38461743  0.79927464  0.55025635     0.19700
S2314       S  0.35408279  0.90110092  0.53494578    -0.30900
H2315       H  0.27201861  0.81420259  0.53548297     0.10000
C2316       C  0.20605711  0.72575242  0.54796248     0.03200
C2317       C  0.16261813  0.68590747  0.54836315    -0.13200
C2318       C  0.14637714  0.65219210  0.54314005    -0.08900
C2319       C  0.17286737  0.66202083  0.53702137     0.06700
C2320       C  0.21648942  0.70184553  0.53665450    -0.14000
S2321       S  0.22678488  0.76635495  0.55502062    -0.30900
H2322       H  0.14242389  0.67953762  0.55299772     0.10900
S2323       S  0.15549296  0.62327931  0.52979227    -0.28000
H2324       H  0.23779882  0.70757008  0.53216187     0.08200
H2325       H  0.37626359  0.92962689  0.54065059     0.26600
H2326       H  0.18805140  0.74253948  0.55928454     0.21400
H2327       H  0.11196928  0.61959000  0.52926736     0.26700
H2328       H  0.27412977  0.68448285  0.54562326     0.15500
C2329       C  0.79944826  0.30309603  0.54587136    -0.11700
C2330       C  0.81645270  0.27511673  0.54828360     0.14800
C2331       C  0.86331128  0.29537114  0.55013934     0.01700
C2332       C  0.89226643  0.34318142  0.54939763    -0.16100
C2333       C  0.87543179  0.37102812  0.54676604    -0.10900
C2334       C  0.82811508  0.35049902  0.54510584     0.08400
C2335       C  0.78428390  0.22486803  0.54819286     0.09400
S2336       S  0.88868103  0.26207024  0.55311198    -0.25200
H2337       H  0.92851878  0.35844494  0.55061104     0.19700
S2338       S  0.80195569  0.38254774  0.54189829    -0.30900
H2339       H  0.76347059  0.28759924  0.54444107     0.10000
C2340       C  0.75355674  0.20257550  0.55366639     0.03200
C2341       C  0.71508279  0.15875011  0.55260028    -0.13200
C2342       C  0.70690957  0.13688663  0.54614387    -0.08900
C2343       C  0.74134510  0.15696882  0.54100721     0.06700
C2344       C  0.77900396  0.20107530  0.54203067    -0.14000
S2345       S  0.76175366  0.23133206  0.56183837    -0.30900
H2346       H  0.68952947  0.14331682  0.55662726     0.10900
S2347       S  0.73878152  0.12877396  0.53297668    -0.28000
H2348       H  0.80330409  0.21784821  0.53787359     0.08200
H2349       H  0.83022424  0.42248447  0.54569502     0.26600
H2350       H  0.72653624  0.19349926  0.56538373     0.21400
H2351       H  0.71487913  0.08391442  0.53572345     0.26700
H2352       H  0.84808258  0.22397197  0.55554339     0.15500
C2353       C  0.75878326  0.54996906  0.45350013    -0.11700
C2354       C  0.76075344  0.51846521  0.45807021     0.14800
C2355       C  0.72282102  0.49194598  0.46243125     0.01700
C2356       C  0.68298158  0.49534573  0.46181166    -0.16100
C2357       C  0.67953892  0.52397019  0.45682316    -0.10900
C2358       C  0.71880146  0.55305517  0.45284348     0.08400
C2359       C  0.79924494  0.50883651  0.45735581     0.09400
S2360       S  0.72088603  0.44919463  0.46829951    -0.25200
H2361       H  0.65299234  0.47229898  0.46482354     0.19700
S2362       S  0.71915777  0.59314271  0.44660113    -0.30900
H2363       H  0.78775005  0.57052635  0.45014952     0.10000
C2364       C  0.79680001  0.47693675  0.45242669     0.03200
C2365       C  0.83350784  0.46851190  0.45176620    -0.13200
C2366       C  0.87321569  0.49133475  0.45591093    -0.08900
C2367       C  0.87582336  0.52391495  0.46079676     0.06700
C2368       C  0.83884771  0.53216087  0.46147614    -0.14000
S2369       S  0.74674097  0.44689138  0.44694212    -0.30900
H2370       H  0.83103115  0.44350261  0.44801973     0.10900
S2371       S  0.92591800  0.55753325  0.46607894    -0.28000
H2372       H  0.84107759  0.55721112  0.46520099     0.08200
H2373       H  0.68524108  0.59899131  0.44991242     0.26600
H2374       H  0.76104540  0.41957536  0.44344456     0.21400
H2375       H  0.95768892  0.56405117  0.46087133     0.26700
H2376       H  0.76840248  0.47063866  0.46952073     0.15500
C2377       C  0.30876408  0.44817172  0.45665210    -0.11700
C2378       C  0.29698127  0.46390462  0.45072112     0.14800
C2379       C  0.33086716  0.48796320  0.44566026     0.01700
C2380       C  0.37668987  0.49987445  0.44696634    -0.16100
C2381       C  0.38932323  0.48780999  0.45322353    -0.10900
C2382       C  0.35416099  0.45916344  0.45791098     0.08400
C2383       C  0.25291285  0.46401435  0.45081953     0.09400
S2384       S  0.31803101  0.50679116  0.43766332    -0.25200
H2385       H  0.40294285  0.52100468  0.44325338     0.19700
S2386       S  0.36496355  0.43658000  0.46570944    -0.30900
H2387       H  0.28277700  0.42926787  0.46052328     0.10000
C2388       C  0.21008807  0.42458357  0.44940961     0.03200
C2389       C  0.16924030  0.42557475  0.45063323    -0.13200
C2390       C  0.17062028  0.46510248  0.45334931    -0.08900
C2391       C  0.21392049  0.50512997  0.45440427     0.06700
C2392       C  0.25423677  0.50402031  0.45316893    -0.14000
S2393       S  0.20759017  0.37295330  0.44621768    -0.30900
H2394       H  0.13622864  0.39496105  0.44975835     0.10900
S2395       S  0.22033006  0.55901719  0.45727312    -0.28000
H2396       H  0.28716442  0.53446066  0.45421633     0.08200
H2397       H  0.40099428  0.43187857  0.46291486     0.26600
H2398       H  0.16018989  0.34915811  0.44473394     0.21400
H2399       H  0.18403912  0.55521776  0.45316089     0.26700
H2400       H  0.27118407  0.47290336  0.43747375     0.15500
C2401       C  0.54913600  0.29632030  0.45177309    -0.11700
C2402       C  0.50903534  0.26293405  0.45506644     0.14800
C2403       C  0.47972564  0.27628537  0.45822518     0.01700
C2404       C  0.49031367  0.32228963  0.45779131    -0.16100
C2405       C  0.52928425  0.35524312  0.45419494    -0.10900
C2406       C  0.55981350  0.34220615  0.45136559     0.08400
C2407       C  0.49927839  0.21472991  0.45502862     0.09400
S2408       S  0.42789918  0.23636400  0.46272372    -0.25200
H2409       H  0.46701898  0.33206148  0.46006314     0.19700
S2410       S  0.61373266  0.38265608  0.44740621    -0.30900
H2411       H  0.57241473  0.28646167  0.44951386     0.10000
C2412       C  0.48859647  0.18969243  0.44883104     0.03200
C2413       C  0.48606013  0.14676801  0.44875257    -0.13200
C2414       C  0.49426239  0.12805162  0.45474098    -0.08900
C2415       C  0.50159844  0.15199084  0.46106942     0.06700
C2416       C  0.50401737  0.19494394  0.46112855    -0.14000
S2417       S  0.47900323  0.21287270  0.44097315    -0.30900
H2418       H  0.47922895  0.12837945  0.44391816     0.10900
S2419       S  0.51129402  0.13170809  0.46915636    -0.28000
H2420       H  0.51178979  0.21409566  0.46591145     0.08200
H2421       H  0.62316057  0.41896190  0.45194529     0.26600
H2422       H  0.46969697  0.17542827  0.43668570     0.21400
H2423       H  0.54684226  0.12590206  0.46650337     0.26700
H2424       H  0.41899230  0.19679394  0.45902301     0.15500
C2425       C  0.47911233  0.78402260  0.45094481    -0.11700
C2426       C  0.51789234  0.79085377  0.45467511     0.14800
C2427       C  0.54318026  0.83161169  0.45855427     0.01700
C2428       C  0.52627747  0.86188528  0.45924985    -0.16100
C2429       C  0.48579217  0.85353880  0.45588649    -0.10900
C2430       C  0.46276862  0.81487951  0.45151544     0.08400
C2431       C  0.52655483  0.75187580  0.45527811     0.09400
S2432       S  0.59622060  0.84596770  0.46292648    -0.25200
H2433       H  0.54469309  0.89208857  0.46248169     0.19700
S2434       S  0.41025868  0.80084928  0.44704776    -0.30900
H2435       H  0.45968323  0.75287751  0.44793977     0.10000
C2436       C  0.51947918  0.72842617  0.46158654     0.03200
C2437       C  0.52531166  0.69012101  0.46193220    -0.13200
C2438       C  0.53611568  0.67270486  0.45605457    -0.08900
C2439       C  0.54384459  0.69702291  0.44972698     0.06700
C2440       C  0.53863949  0.73596357  0.44941922    -0.14000
S2441       S  0.49933552  0.74477662  0.46912569    -0.30900
H2442       H  0.51931605  0.67254066  0.46682921     0.10900
S2443       S  0.55979397  0.68052753  0.44184383    -0.28000
H2444       H  0.54373780  0.75389880  0.44455585     0.08200
H2445       H  0.39121101  0.81185606  0.45266026     0.26600
H2446       H  0.49430214  0.70901634  0.47349816     0.21400
H2447       H  0.59652366  0.67858451  0.44499985     0.26700
H2448       H  0.60817972  0.82005696  0.45860332     0.15500
C2449       C  0.66639079  0.69670774  0.41060370    -0.11700
C2450       C  0.62426582  0.68476041  0.41375268     0.14800
C2451       C  0.59848919  0.70449208  0.41119562     0.01700
C2452       C  0.61368090  0.73275552  0.40532701    -0.16100
C2453       C  0.65530832  0.74387001  0.40205464    -0.10900
C2454       C  0.68203369  0.72563837  0.40480521     0.08400
C2455       C  0.60842100  0.65168077  0.41965581     0.09400
S2456       S  0.54665497  0.69615234  0.41527698    -0.25200
H2457       H  0.59308864  0.74693008  0.40336815     0.19700
S2458       S  0.73492748  0.73543985  0.40094786    -0.30900
H2459       H  0.68665921  0.68215719  0.41255741     0.10000
C2460       C  0.56724388  0.60861988  0.41939294     0.03200
C2461       C  0.55317108  0.57967827  0.42522653    -0.13200
C2462       C  0.58058597  0.59164538  0.43118825    -0.08900
C2463       C  0.62287086  0.63366853  0.43131113     0.06700
C2464       C  0.63603964  0.66318316  0.42559219    -0.14000
S2465       S  0.53410055  0.58911235  0.41150902    -0.30900
H2466       H  0.52135926  0.54697166  0.42508735     0.10900
S2467       S  0.66190260  0.65194275  0.43856529    -0.28000
H2468       H  0.66813342  0.69566909  0.42578427     0.08200
H2469       H  0.71774315  0.72780924  0.39415468     0.26600
H2470       H  0.50142538  0.54502571  0.41388447     0.21400
H2471       H  0.62932298  0.62706836  0.44369489     0.26700
H2472       H  0.55872122  0.69025814  0.42200105     0.15500
C2473       C  0.23840395  0.51968926  0.54380607    -0.11700
C2474       C  0.22893699  0.47618526  0.54153110     0.14800
C2475       C  0.18293020  0.44248540  0.54003682     0.01700
C2476       C  0.14748231  0.45267375  0.54102543    -0.16100
C2477       C  0.15692748  0.49588155  0.54350582    -0.10900
C2478       C  0.20318698  0.52990058  0.54475801     0.08400
C2479       C  0.26757693  0.46649025  0.54142860     0.09400
S2480       S  0.16725340  0.38566325  0.53704407    -0.25200
H2481       H  0.11219452  0.42632504  0.54002133     0.19700
S2482       S  0.21948488  0.58718532  0.54753799    -0.30900
H2483       H  0.27359533  0.54577507  0.54494943     0.10000
C2484       C  0.30109276  0.48369391  0.53618433     0.03200
C2485       C  0.34150741  0.48122900  0.53698016    -0.13200
C2486       C  0.34918324  0.46201485  0.54295065    -0.08900
C2487       C  0.31343083  0.44109667  0.54788624     0.06700
C2488       C  0.27349179  0.44403619  0.54710719    -0.14000
S2489       S  0.29321733  0.51061532  0.52863117    -0.30900
H2490       H  0.36856451  0.49731663  0.53317771     0.10900
S2491       S  0.31713645  0.41127208  0.55540788    -0.28000
H2492       H  0.24746393  0.43012382  0.55109567     0.08200
H2493       H  0.18684032  0.59044671  0.54339936     0.26600
H2494       H  0.33217024  0.51655523  0.52504916     0.21400
H2495       H  0.34566046  0.39683015  0.55233003     0.26700
H2496       H  0.20925851  0.39827580  0.53379073     0.15500
C2497       C  0.70222521  0.52396652  0.54862558    -0.11700
C2498       C  0.71858396  0.49369796  0.54723485     0.14800
C2499       C  0.68739470  0.44826462  0.54507922     0.01700
C2500       C  0.64112438  0.43471802  0.54411518    -0.16100
C2501       C  0.62499796  0.46544366  0.54522829    -0.10900
C2502       C  0.65581068  0.51041433  0.54760531     0.08400
C2503       C  0.76850793  0.51066701  0.54760876     0.09400
S2504       S  0.70437098  0.40601207  0.54338153    -0.25200
H2505       H  0.61751325  0.39998886  0.54237011     0.19700
S2506       S  0.63863380  0.55267769  0.54906737    -0.30900
H2507       H  0.72609139  0.55882389  0.55027835     0.10000
C2508       C  0.79777917  0.53720372  0.54220829     0.03200
C2509       C  0.84214609  0.54342498  0.54183136    -0.13200
C2510       C  0.85801259  0.52373716  0.54675263    -0.08900
C2511       C  0.82996308  0.50080044  0.55253953     0.06700
C2512       C  0.78548561  0.49460213  0.55288296    -0.14000
S2513       S  0.77717227  0.55920913  0.53540183    -0.30900
H2514       H  0.86355271  0.56124902  0.53743414     0.10900
S2515       S  0.84725392  0.47382741  0.55906781    -0.28000
H2516       H  0.76254471  0.47422717  0.55700195     0.08200
H2517       H  0.60769609  0.53910606  0.54348565     0.26600
H2518       H  0.82002598  0.58681821  0.53221825     0.21400
H2519       H  0.81239069  0.46532021  0.56383426     0.26700
H2520       H  0.74772557  0.43684518  0.54061161     0.15500
C2521       C  0.51129377  0.78002297  0.53664557    -0.11700
C2522       C  0.53645779  0.76877969  0.54125073     0.14800
C2523       C  0.56589814  0.80207331  0.54608122     0.01700
C2524       C  0.56662682  0.84411773  0.54657548    -0.16100
C2525       C  0.53910612  0.85441708  0.54227985    -0.10900
C2526       C  0.51260588  0.82243467  0.53705511     0.08400
C2527       C  0.52575911  0.72014991  0.54167934     0.09400
S2528       S  0.60016233  0.79132539  0.55218267    -0.25200
H2529       H  0.58701775  0.86801998  0.55061421     0.19700
S2530       S  0.47496458  0.83087407  0.53136853    -0.30900
H2531       H  0.48839335  0.75450477  0.53296135     0.10000
C2532       C  0.49399586  0.68999711  0.54656826     0.03200
C2533       C  0.48665945  0.64522176  0.54724041    -0.13200
C2534       C  0.51024852  0.62925048  0.54312271    -0.08900
C2535       C  0.54123848  0.65936082  0.53806947     0.06700
C2536       C  0.54818674  0.70416791  0.53735506    -0.14000
S2537       S  0.46254621  0.70857018  0.55196182    -0.30900
H2538       H  0.46210730  0.62237281  0.55101548     0.10900
S2539       S  0.57477782  0.64390927  0.53264318    -0.28000
H2540       H  0.57251935  0.72732521  0.53357525     0.08200
H2541       H  0.51061013  0.87302427  0.52886201     0.26600
H2542       H  0.43559577  0.66645832  0.55540282     0.21400
H2543       H  0.58575595  0.62237833  0.53796366     0.26700
H2544       H  0.60498239  0.75936940  0.54813186     0.15500
C2545       C  0.45970083  0.22149454  0.54182630    -0.11700
C2546       C  0.48225425  0.21965908  0.54782746     0.14800
C2547       C  0.49390172  0.25359704  0.55294718     0.01700
C2548       C  0.48685252  0.29071829  0.55168245    -0.16100
C2549       C  0.46775622  0.29469424  0.54542350    -0.10900
C2550       C  0.45144433  0.25795124  0.54063954     0.08400
C2551       C  0.49871317  0.18601477  0.54814483     0.09400
S2552       S  0.51999892  0.25266986  0.56104987    -0.25200
H2553       H  0.49898796  0.31807193  0.55546902     0.19700
S2554       S  0.42042936  0.25570410  0.53290098    -0.30900
H2555       H  0.44990832  0.19515481  0.53791697     0.10000
C2556       C  0.46822659  0.13799086  0.54820323     0.03200
C2557       C  0.48589664  0.10792483  0.54771181    -0.13200
C2558       C  0.53338878  0.12509342  0.54715520    -0.08900
C2559       C  0.56387267  0.17303106  0.54749468     0.06700
C2560       C  0.54628672  0.20290308  0.54791680    -0.14000
S2561       S  0.40694108  0.11509871  0.54880555    -0.30900
H2562       H  0.46268168  0.07109692  0.54744296     0.10900
S2563       S  0.62552606  0.19803117  0.54724611    -0.28000
H2564       H  0.56988479  0.23974538  0.54791107     0.08200
H2565       H  0.39984919  0.27956357  0.53573483     0.26600
H2566       H  0.39443540  0.06833885  0.54900086     0.21400
H2567       H  0.62610147  0.16088491  0.55052470     0.26700
H2568       H  0.50107464  0.20463451  0.56130911     0.15500
C2569       C  0.50140636  0.51013912  0.50633067    -0.11700
C2570       C  0.50615203  0.47495713  0.50319132     0.14800
C2571       C  0.50960400  0.44249146  0.50739977     0.01700
C2572       C  0.50909072  0.44627983  0.51457017    -0.16100
C2573       C  0.50408444  0.48116951  0.51776525    -0.10900
C2574       C  0.49980839  0.51325798  0.51354948     0.08400
C2575       C  0.50723252  0.47274917  0.49553887     0.09400
S2576       S  0.51464766  0.39527453  0.50396643    -0.25200
H2577       H  0.51212031  0.42110281  0.51770443     0.19700
S2578       S  0.49543782  0.56041908  0.51707687    -0.30900
H2579       H  0.49893116  0.53533673  0.50312499     0.10000
C2580       C  0.46726262  0.45905283  0.49157721     0.03200
C2581       C  0.46979087  0.45887278  0.48435645    -0.13200
C2582       C  0.51138920  0.47139460  0.48092978    -0.08900
C2583       C  0.55074972  0.48207555  0.48496803     0.06700
C2584       C  0.54840567  0.48334916  0.49219369    -0.14000
S2585       S  0.41280545  0.44122065  0.49573308    -0.30900
H2586       H  0.43919178  0.44975090  0.48134488     0.10900
S2587       S  0.60544924  0.49690696  0.48124425    -0.28000
H2588       H  0.57899842  0.49290444  0.49524291     0.08200
H2589       H  0.45428812  0.53141924  0.52059240     0.26600
H2590       H  0.38666873  0.43318387  0.48967705     0.21400
H2591       H  0.58730965  0.45599812  0.47738303     0.26700
H2592       H  0.48901100  0.38929261  0.49792195     0.15500
C2593       C  0.03723012  0.67507172  0.90847516    -0.11700
C2594       C  0.06628033  0.68170680  0.91410332     0.14800
C2595       C  0.11172579  0.71957925  0.91401662     0.01700
C2596       C  0.12676980  0.74986570  0.90836074    -0.16100
C2597       C  0.09720848  0.74380907  0.90282117    -0.10900
C2598       C  0.05228468  0.70519369  0.90282948     0.08400
C2599       C  0.04879264  0.64700444  0.91975901     0.09400
S2600       S  0.15190904  0.73142953  0.92098268    -0.25200
H2601       H  0.16160425  0.77881825  0.90832959     0.19700
S2602       S  0.01328415  0.69074421  0.89564190    -0.30900
H2603       H  0.00282133  0.64538676  0.90840412     0.10000
C2604       C  0.01218670  0.64074806  0.92403643     0.03200
C2605       C  0.99600595  0.60675506  0.92919892    -0.13200
C2606       C  0.01582809  0.57895535  0.93023290    -0.08900
C2607       C  0.05188383  0.58469428  0.92583324     0.06700
C2608       C  0.06802222  0.61865466  0.92069378    -0.14000
S2609       S  0.98766730  0.67769851  0.92317840    -0.30900
H2610       H  0.96901774  0.60306277  0.93263252     0.10900
S2611       S  0.07794925  0.54906358  0.92637707    -0.28000
H2612       H  0.09551992  0.62271809  0.91733285     0.08200
H2613       H  0.04711434  0.70873831  0.89047922     0.26600
H2614       H  0.95269084  0.65529581  0.92810812     0.21400
H2615       H  0.03752459  0.50891848  0.92838991     0.26700
H2616       H  0.11887363  0.71329869  0.92625912     0.15500
C2617       C  0.14445542  0.80805052  0.82754515    -0.11700
C2618       C  0.18064166  0.84638799  0.83084245     0.14800
C2619       C  0.21904496  0.87764603  0.82685979     0.01700
C2620       C  0.22007824  0.87023355  0.81976057    -0.16100
C2621       C  0.18278601  0.83335201  0.81642012    -0.10900
C2622       C  0.14483466  0.80163463  0.82040506     0.08400
C2623       C  0.17909611  0.85095864  0.83848249     0.09400
S2624       S  0.26617584  0.92965795  0.83040145    -0.25200
H2625       H  0.24847995  0.89578611  0.81671821     0.19700
S2626       S  0.09505820  0.75327447  0.81660511    -0.30900
H2627       H  0.11538064  0.78316694  0.83054697     0.10000
C2628       C  0.14321450  0.85364694  0.84185872     0.03200
C2629       C  0.14220477  0.85441185  0.84912929    -0.13200
C2630       C  0.17701098  0.85382965  0.85310586    -0.08900
C2631       C  0.21487126  0.85525608  0.84962964     0.06700
C2632       C  0.21449116  0.85204320  0.84245430    -0.14000
S2633       S  0.09888464  0.85645650  0.83694552    -0.30900
H2634       H  0.11341566  0.85382036  0.85171537     0.10900
S2635       S  0.26557530  0.86202983  0.85396056    -0.28000
H2636       H  0.24252430  0.85075937  0.83991910     0.08200
H2637       H  0.11795268  0.74984121  0.81077614     0.26600
H2638       H  0.07612164  0.86231703  0.84258898     0.21400
H2639       H  0.26632892  0.89283525  0.85894300     0.26700
H2640       H  0.23960056  0.93696887  0.83527767     0.15500
C2641       C  0.40135730  0.89633786  0.79225534    -0.11700
C2642       C  0.40876637  0.86343930  0.78893343     0.14800
C2643       C  0.37253066  0.82744169  0.78522935     0.01700
C2644       C  0.32950468  0.82386028  0.78514622    -0.16100
C2645       C  0.32140951  0.85638874  0.78844968    -0.10900
C2646       C  0.35819141  0.89364604  0.79194700     0.08400
C2647       C  0.45305972  0.86447915  0.78968820     0.09400
S2648       S  0.37879018  0.78443844  0.78055436    -0.25200
H2649       H  0.30184552  0.79502100  0.78242939     0.19700
S2650       S  0.35283709  0.93939252  0.79583428    -0.30900
H2651       H  0.42935464  0.92429117  0.79505277     0.10000
C2652       C  0.49086775  0.89222499  0.78541998     0.03200
C2653       C  0.52787312  0.88393049  0.78513304    -0.13200
C2654       C  0.52768319  0.84846157  0.78904358    -0.08900
C2655       C  0.49045375  0.82213110  0.79353349     0.06700
C2656       C  0.45406879  0.83093220  0.79388262    -0.14000
S2657       S  0.49023244  0.93551403  0.77994192    -0.30900
H2658       H  0.55630344  0.90401269  0.78167813     0.10900
S2659       S  0.48454496  0.77337515  0.79833123    -0.28000
H2660       H  0.42452957  0.80902559  0.79705781     0.08200
H2661       H  0.32270714  0.93961301  0.79079120     0.26600
H2662       H  0.53559705  0.95446702  0.77752585     0.21400
H2663       H  0.49636261  0.75510694  0.79271454     0.26700
H2664       H  0.42389421  0.81441597  0.77829706     0.15500
C2665       C  0.86876484  0.78643654  0.78522846    -0.11700
C2666       C  0.90901273  0.82542664  0.78756566     0.14800
C2667       C  0.90599825  0.86162501  0.79071739     0.01700
C2668       C  0.86307113  0.85769841  0.79162090    -0.16100
C2669       C  0.82243280  0.81836665  0.78946306    -0.10900
C2670       C  0.82543423  0.78232624  0.78619615     0.08400
C2671       C  0.95297846  0.82542446  0.78760851     0.09400
S2672       S  0.95535855  0.91253853  0.79410778    -0.25200
H2673       H  0.86147058  0.88591032  0.79405510     0.19700
S2674       S  0.77548720  0.72917096  0.78362859    -0.30900
H2675       H  0.87097020  0.75816632  0.78294722     0.10000
C2676       C  0.96644168  0.81054248  0.79349156     0.03200
C2677       C  0.01195149  0.82030181  0.79410458    -0.13200
C2678       C  0.04470892  0.84463250  0.78892831    -0.08900
C2679       C  0.02929455  0.85465416  0.78266575     0.06700
C2680       C  0.98380619  0.84547904  0.78212597    -0.14000
S2681       S  0.92636529  0.78180362  0.80044442    -0.30900
H2682       H  0.02247356  0.81088902  0.79883102     0.10900
S2683       S  0.06589198  0.88137228  0.77532636    -0.28000
H2684       H  0.97296637  0.85604290  0.77753544     0.08200
H2685       H  0.74854720  0.72705063  0.78930797     0.26600
H2686       H  0.95383680  0.76825911  0.80412424     0.21400
H2687       H  0.08091227  0.84903501  0.77511171     0.26700
H2688       H  0.98627525  0.91605549  0.78897102     0.15500
C2689       C  0.54603729  0.93540882  0.92095875    -0.11700
C2690       C  0.59363482  0.95362350  0.92019791     0.14800
C2691       C  0.62393919  0.98671179  0.92499416     0.01700
C2692       C  0.60617442  0.00111291  0.93032769    -0.16100
C2693       C  0.55858304  0.98194845  0.93119195    -0.10900
C2694       C  0.52822702  0.94884923  0.92641684     0.08400
C2695       C  0.61074468  0.93981804  0.91412021     0.09400
S2696       S  0.68543845  0.01048019  0.92478072    -0.25200
H2697       H  0.62970182  0.02594465  0.93403538     0.19700
S2698       S  0.46662413  0.92351015  0.92689201    -0.30900
H2699       H  0.52256550  0.91087577  0.91721717     0.10000
C2700       C  0.59807372  0.89348686  0.91287153     0.03200
C2701       C  0.61429321  0.88234809  0.90693441    -0.13200
C2702       C  0.64374790  0.91658884  0.90229072    -0.08900
C2703       C  0.65621435  0.96289622  0.90355739     0.06700
C2704       C  0.63957610  0.97388554  0.90941850    -0.14000
S2705       S  0.56299280  0.84873455  0.91896635    -0.30900
H2706       H  0.60472320  0.84689367  0.90595569     0.10900
S2707       S  0.69135380  0.00938511  0.89776590    -0.28000
H2708       H  0.64867703  0.00936882  0.91027910     0.08200
H2709       H  0.46759615  0.96301622  0.92952284     0.26600
H2710       H  0.55990729  0.81161427  0.91517428     0.21400
H2711       H  0.67276384  0.98376683  0.89169176     0.26700
H2712       H  0.68399224  0.97097139  0.92205851     0.15500
C2713       C  0.45127694  0.89497867  0.87609688    -0.11700
C2714       C  0.42413927  0.86524693  0.88139017     0.14800
C2715       C  0.44375728  0.84683785  0.88593872     0.01700
C2716       C  0.48885658  0.85628057  0.88485499    -0.16100
C2717       C  0.51522946  0.88370939  0.87929118    -0.10900
C2718       C  0.49653761  0.90464229  0.87502858     0.08400
C2719       C  0.37404048  0.84863247  0.88137303     0.09400
S2720       S  0.41203425  0.80876849  0.89295775    -0.25200
H2721       H  0.50241714  0.83970351  0.88815524     0.19700
S2722       S  0.52820224  0.94317436  0.86806844    -0.30900
H2723       H  0.43644190  0.90930045  0.87259515     0.10000
C2724       C  0.35591231  0.87714850  0.88313961     0.03200
C2725       C  0.30826862  0.86008192  0.88252742    -0.13200
C2726       C  0.27863573  0.81508774  0.88016562    -0.08900
C2727       C  0.29684899  0.78607416  0.87874989     0.06700
C2728       C  0.34412921  0.80322550  0.87928831    -0.14000
S2729       S  0.39344899  0.93515969  0.88612196    -0.30900
H2730       H  0.29432383  0.88231589  0.88362103     0.10900
S2731       S  0.26146863  0.72662260  0.87628514    -0.28000
H2732       H  0.35786967  0.78101844  0.87801936     0.08200
H2733       H  0.57158668  0.96054230  0.87121391     0.26600
H2734       H  0.35848148  0.94462046  0.88791924     0.21400
H2735       H  0.22339134  0.71913417  0.88022838     0.26700
H2736       H  0.38220554  0.82621680  0.89399537     0.15500
C2737       C  0.92755161  0.79658140  0.87996014    -0.11700
C2738       C  0.92697187  0.82885494  0.87539837     0.14800
C2739       C  0.96593721  0.85538220  0.87120998     0.01700
C2740       C  0.00542316  0.85151901  0.87203545    -0.16100
C2741       C  0.00717579  0.82159025  0.87695720    -0.10900
C2742       C  0.96690279  0.79247072  0.88074250     0.08400
C2743       C  0.88845130  0.83878336  0.87585520     0.09400
S2744       S  0.96834614  0.89670373  0.86500376    -0.25200
H2745       H  0.03601773  0.87427862  0.86911888     0.19700
S2746       S  0.96406140  0.75037008  0.88680575    -0.30900
H2747       H  0.89779736  0.77583189  0.88316281     0.10000
C2748       C  0.84317628  0.80710793  0.87371667     0.03200
C2749       C  0.80814896  0.81828291  0.87448523    -0.13200
C2750       C  0.81730992  0.86037998  0.87741968    -0.08900
C2751       C  0.86307508  0.89229036  0.87942229     0.06700
C2752       C  0.89767487  0.88096672  0.87868520    -0.14000
S2753       S  0.83011300  0.75269461  0.86996609    -0.30900
H2754       H  0.77327625  0.79371929  0.87294757     0.10900
S2755       S  0.88025429  0.94880746  0.88273991    -0.28000
H2756       H  0.93241408  0.90551514  0.88030876     0.08200
H2757       H  0.99723228  0.74343937  0.88347294     0.26600
H2758       H  0.78379530  0.73758377  0.86838153     0.21400
H2759       H  0.85024834  0.95563948  0.87849563     0.26700
H2760       H  0.92073365  0.87473687  0.86375629     0.15500
C2761       C  0.64874038  0.86290640  0.82665186    -0.11700
C2762       C  0.65960413  0.83220615  0.82997218     0.14800
C2763       C  0.66194158  0.79815974  0.82599868     0.01700
C2764       C  0.65348065  0.79559566  0.81889346    -0.16100
C2765       C  0.64481223  0.82757760  0.81554698    -0.10900
C2766       C  0.64231730  0.86156801  0.81948422     0.08400
C2767       C  0.66631344  0.83512656  0.83759282     0.09400
S2768       S  0.67923777  0.75940184  0.82956451    -0.25200
H2769       H  0.65742593  0.77070574  0.81585842     0.19700
S2770       S  0.63340390  0.90548313  0.81561907    -0.30900
H2771       H  0.64619408  0.88873336  0.82965180     0.10000
C2772       C  0.70090634  0.87521418  0.84088114     0.03200
C2773       C  0.70338392  0.87711465  0.84813224    -0.13200
C2774       C  0.67255863  0.83941696  0.85216768    -0.08900
C2775       C  0.64083661  0.79795183  0.84881096     0.06700
C2776       C  0.63717650  0.79677350  0.84162503    -0.14000
S2777       S  0.74195405  0.92398626  0.83587367    -0.30900
H2778       H  0.72797882  0.90876592  0.85066134     0.10900
S2779       S  0.60433420  0.74500668  0.85337213    -0.28000
H2780       H  0.61130660  0.76549637  0.83914139     0.08200
H2781       H  0.61171581  0.88090475  0.80958484     0.26600
H2782       H  0.76932903  0.95028270  0.84145225     0.21400
H2783       H  0.63581339  0.75369791  0.85876801     0.26700
H2784       H  0.70980178  0.79057252  0.83447874     0.15500
C2785       C  0.17871192  0.16419640  0.78243507    -0.11700
C2786       C  0.19023512  0.14980879  0.78852353     0.14800
C2787       C  0.19628978  0.17467701  0.79465589     0.01700
C2788       C  0.18507278  0.20949567  0.79477174    -0.16100
C2789       C  0.16868897  0.22112072  0.78884158    -0.10900
C2790       C  0.16905183  0.20027437  0.78247881     0.08400
C2791       C  0.18874997  0.10504455  0.78863991     0.09400
S2792       S  0.21443631  0.16089291  0.80264849    -0.25200
H2793       H  0.18708569  0.22595997  0.79966026     0.19700
S2794       S  0.15622720  0.21636212  0.77426464    -0.30900
H2795       H  0.17534166  0.14592823  0.77767044     0.10000
C2796       C  0.15176793  0.06670165  0.79183091     0.03200
C2797       C  0.15312968  0.02598340  0.79256749    -0.13200
C2798       C  0.19059042  0.02233745  0.79015596    -0.08900
C2799       C  0.22680025  0.06034807  0.78668204     0.06700
C2800       C  0.22523699  0.10115513  0.78590304    -0.14000
S2801       S  0.10254548  0.06953386  0.79494733    -0.30900
H2802       H  0.12458830  0.99659771  0.79502612     0.10900
S2803       S  0.27696361  0.06006076  0.78349991    -0.28000
H2804       H  0.25352454  0.13067211  0.78341684     0.08200
H2805       H  0.18288234  0.26394116  0.77553939     0.26600
H2806       H  0.07877008  0.02498097  0.79778916     0.21400
H2807       H  0.28121519  0.03682650  0.78926117     0.26700
H2808       H  0.23970298  0.14250622  0.79962145     0.15500
C2809       C  0.17904921  0.63871258  0.79429066    -0.11700
C2810       C  0.14617078  0.60444164  0.78996926     0.14800
C2811       C  0.11816083  0.61505804  0.78579146     0.01700
C2812       C  0.12543644  0.66001415  0.78570811    -0.16100
C2813       C  0.15986276  0.69511119  0.78976285    -0.10900
C2814       C  0.18654550  0.68385593  0.79418533     0.08400
C2815       C  0.14755017  0.56116332  0.78898198     0.09400
S2816       S  0.07464972  0.57357063  0.78008846    -0.25200
H2817       H  0.10469016  0.66796117  0.78229882     0.19700
S2818       S  0.23374442  0.72624715  0.79927601    -0.30900
H2819       H  0.20123379  0.63105127  0.79741313     0.10000
C2820       C  0.17184487  0.55698019  0.78339904     0.03200
C2821       C  0.17266921  0.51600303  0.78247890    -0.13200
C2822       C  0.14960217  0.47826880  0.78700298    -0.08900
C2823       C  0.12429501  0.48231118  0.79253644     0.06700
C2824       C  0.12425767  0.52387451  0.79353032    -0.14000
S2825       S  0.20278916  0.60444583  0.77748572    -0.30900
H2826       H  0.19257020  0.51395127  0.77826348     0.10900
S2827       S  0.08982240  0.43542306  0.79831258    -0.28000
H2828       H  0.10502267  0.52680650  0.79777784     0.08200
H2829       H  0.25101246  0.75965808  0.79403332     0.26600
H2830       H  0.22342211  0.58435980  0.77359801     0.21400
H2831       H  0.07350947  0.40167345  0.79311131     0.26700
H2832       H  0.06629642  0.53410571  0.78380108     0.15500
C2833       C  0.48086337  0.60636764  0.79398759    -0.11700
C2834       C  0.44098480  0.59590914  0.79021017     0.14800
C2835       C  0.44116000  0.62987525  0.78588978     0.01700
C2836       C  0.48107887  0.67255062  0.78526047    -0.16100
C2837       C  0.52161165  0.68343950  0.78891613    -0.10900
C2838       C  0.52125418  0.64958560  0.79334722     0.08400
C2839       C  0.39992286  0.54909518  0.79047278     0.09400
S2840       S  0.39175931  0.62081752  0.78089513    -0.25200
H2841       H  0.48000883  0.69794418  0.78191413     0.19700
S2842       S  0.57150192  0.65827084  0.79798965    -0.30900
H2843       H  0.48095505  0.58025186  0.79727876     0.10000
C2844       C  0.38873361  0.51884019  0.78484580     0.03200
C2845       C  0.34408810  0.48096923  0.78425289    -0.13200
C2846       C  0.31011757  0.47241722  0.78918909    -0.08900
C2847       C  0.32279285  0.50080505  0.79513604     0.06700
C2848       C  0.36762371  0.53842128  0.79573822    -0.14000
S2849       S  0.43083306  0.52996639  0.77823761    -0.30900
H2850       H  0.33511877  0.45877814  0.77978742     0.10900
S2851       S  0.28254989  0.49412689  0.80178370    -0.28000
H2852       H  0.37617239  0.56178501  0.80005597     0.08200
H2853       H  0.60209978  0.68129556  0.79253449     0.26600
H2854       H  0.40233976  0.49219527  0.77401238     0.21400
H2855       H  0.24883382  0.49101070  0.79712812     0.26700
H2856       H  0.35812345  0.59126786  0.78559741     0.15500
C2857       C  0.83264650  0.04190939  0.78969871    -0.11700
C2858       C  0.86128548  0.04911040  0.78403695     0.14800
C2859       C  0.85129347  0.01207642  0.77958507     0.01700
C2860       C  0.81569975  0.96789274  0.78125509    -0.16100
C2861       C  0.78902528  0.95992139  0.78722444    -0.10900
C2862       C  0.79601361  0.99810565  0.79123834     0.08400
C2863       C  0.90504834  0.09332111  0.78361891     0.09400
S2864       S  0.88401756  0.01882069  0.77188086    -0.25200
H2865       H  0.81031449  0.93928470  0.77802873     0.19700
S2866       S  0.75975765  0.99348129  0.79838841    -0.30900
H2867       H  0.83982803  0.07042714  0.79308043     0.10000
C2868       C  0.90653746  0.13551098  0.78242025     0.03200
C2869       C  0.94853736  0.17694899  0.78311293    -0.13200
C2870       C  0.98870051  0.17668329  0.78506474    -0.08900
C2871       C  0.98739953  0.13408793  0.78580621     0.06700
C2872       C  0.94568792  0.09307900  0.78514396    -0.14000
S2873       S  0.85479311  0.13642783  0.78018001    -0.30900
H2874       H  0.94964971  0.20957259  0.78249301     0.10900
S2875       S  0.03777924  0.12977465  0.78762360    -0.28000
H2876       H  0.94464871  0.06062544  0.78600869     0.08200
H2877       H  0.71910964  0.95816034  0.79539959     0.26600
H2878       H  0.87547740  0.18447153  0.77945573     0.21400
H2879       H  0.06651515  0.16706173  0.78335392     0.26700
H2880       H  0.89817539  0.06554563  0.77081627     0.15500
C2881       C  0.32375340  0.36638402  0.90853406    -0.11700
C2882       C  0.32006932  0.39392574  0.91364539     0.14800
C2883       C  0.28817436  0.40939544  0.91264009     0.01700
C2884       C  0.26126196  0.39725882  0.90661062    -0.16100
C2885       C  0.26418694  0.36872267  0.90160352    -0.10900
C2886       C  0.29637138  0.35366105  0.90257254     0.08400
C2887       C  0.35154544  0.40777862  0.91975352     0.09400
S2888       S  0.27916742  0.44365156  0.91891917    -0.25200
H2889       H  0.23681372  0.40907599  0.90591781     0.19700
S2890       S  0.30576185  0.31987208  0.89625445    -0.30900
H2891       H  0.34886879  0.35534062  0.90913754     0.10000
C2892       C  0.35182504  0.37495595  0.92432188     0.03200
C2893       C  0.38217204  0.38981580  0.92998979    -0.13200
C2894       C  0.41178529  0.43685195  0.93130700    -0.08900
C2895       C  0.41213915  0.46956242  0.92664816     0.06700
C2896       C  0.38233235  0.45473971  0.92094610    -0.14000
S2897       S  0.31163979  0.31421734  0.92321804    -0.30900
H2898       H  0.38145849  0.36473837  0.93359233     0.10900
S2899       S  0.45039122  0.53066609  0.92760931    -0.28000
H2900       H  0.38313778  0.48012406  0.91739053     0.08200
H2901       H  0.29903338  0.34129348  0.89047177     0.26600
H2902       H  0.32726030  0.29859091  0.92877738     0.21400
H2903       H  0.48679638  0.52699026  0.93054255     0.26700
H2904       H  0.28944670  0.42531075  0.92474305     0.15500
C2905       C  0.20042269  0.35205677  0.82489750    -0.11700
C2906       C  0.17174667  0.36169098  0.82893687     0.14800
C2907       C  0.14345228  0.37627890  0.82566056     0.01700
C2908       C  0.14135436  0.37655054  0.81842505    -0.16100
C2909       C  0.16821491  0.36423951  0.81441852    -0.10900
C2910       C  0.19922157  0.35357946  0.81770630     0.08400
C2911       C  0.17262112  0.35580071  0.83651542     0.09400
S2912       S  0.10825687  0.39339616  0.83037674    -0.25200
H2913       H  0.11712248  0.38431251  0.81591616     0.19700
S2914       S  0.23564331  0.33825583  0.81295057    -0.30900
H2915       H  0.22299684  0.34191862  0.82737200     0.10000
C2916       C  0.13583914  0.31925133  0.84011035     0.03200
C2917       C  0.13945777  0.31479787  0.84728897    -0.13200
C2918       C  0.17942974  0.34586016  0.85088395    -0.08900
C2919       C  0.21702645  0.38065862  0.84715429     0.06700
C2920       C  0.21297922  0.38558092  0.84008078    -0.14000
S2921       S  0.08464192  0.27815440  0.83555352    -0.30900
H2922       H  0.11070920  0.28817246  0.85013409     0.10900
S2923       S  0.27168683  0.41951707  0.85110896    -0.28000
H2924       H  0.24183351  0.41268403  0.83729978     0.08200
H2925       H  0.23981217  0.36484220  0.80708215     0.26600
H2926       H  0.06247929  0.24946869  0.84124150     0.21400
H2927       H  0.26986981  0.38746418  0.85598006     0.26700
H2928       H  0.13475955  0.40672445  0.83644952     0.15500
C2929       C  0.97457977  0.11979526  0.87708033    -0.11700
C2930       C  0.94278148  0.12984258  0.87398660     0.14800
C2931       C  0.95799205  0.17515278  0.87164211     0.01700
C2932       C  0.00424782  0.20936608  0.87255519    -0.16100
C2933       C  0.03587939  0.19943503  0.87576849    -0.10900
C2934       C  0.02076572  0.15368621  0.87791715     0.08400
C2935       C  0.89388455  0.09242955  0.87363522     0.09400
S2936       S  0.92005248  0.19166160  0.86756633    -0.25200
H2937       H  0.01539176  0.24425044  0.87088605     0.19700
S2938       S  0.05881191  0.13596398  0.88162998    -0.30900
H2939       H  0.96321524  0.08508118  0.87886933     0.10000
C2940       C  0.87987494  0.05383512  0.86932837     0.03200
C2941       C  0.83550673  0.01545065  0.87004579    -0.13200
C2942       C  0.80512050  0.01440383  0.87510645    -0.08900
C2943       C  0.81779562  0.05496159  0.87891764     0.06700
C2944       C  0.86201411  0.09325950  0.87819278    -0.14000
S2945       S  0.91944693  0.05259670  0.86317217    -0.30900
H2946       H  0.82606372  0.98463827  0.86708690     0.10900
S2947       S  0.77946544  0.05947483  0.88491307    -0.28000
H2948       H  0.87229541  0.12323160  0.88141192     0.08200
H2949       H  0.09712473  0.16579704  0.87762151     0.26600
H2950       H  0.88956221  0.00828273  0.86057138     0.21400
H2951       H  0.73877676  0.02596509  0.88169251     0.26700
H2952       H  0.88897253  0.14810759  0.86485099     0.15500
C2953       C  0.51655809  0.65749986  0.88354508    -0.11700
C2954       C  0.47183980  0.63901208  0.88086618     0.14800
C2955       C  0.45855978  0.66880167  0.87779384     0.01700
C2956       C  0.49068259  0.71550089  0.87708757    -0.16100
C2957       C  0.53614906  0.73401054  0.87943830    -0.10900
C2958       C  0.54896967  0.70462236  0.88281931     0.08400
C2959       C  0.44101687  0.58839726  0.88050137     0.09400
S2960       S  0.40172968  0.64899718  0.87431384    -0.25200
H2961       H  0.48010814  0.73763782  0.87457332     0.19700
S2962       S  0.60672371  0.72419071  0.88579323    -0.30900
H2963       H  0.52698022  0.63470903  0.88586534     0.10000
C2964       C  0.43352370  0.56534728  0.87416655     0.03200
C2965       C  0.39596389  0.52070561  0.87344239    -0.13200
C2966       C  0.36557483  0.49794694  0.87895231    -0.08900
C2967       C  0.37748894  0.51901317  0.88557299     0.06700
C2968       C  0.41442408  0.56429716  0.88622885    -0.14000
S2969       S  0.47021845  0.59409561  0.86686381    -0.30900
H2970       H  0.38886569  0.50455618  0.86841951     0.10900
S2971       S  0.34610948  0.49160321  0.89331897    -0.28000
H2972       H  0.42110874  0.58161312  0.89116335     0.08200
H2973       H  0.62802034  0.75186227  0.87997772     0.26600
H2974       H  0.44908628  0.55691400  0.86224195     0.21400
H2975       H  0.34611116  0.45028577  0.89206901     0.26700
H2976       H  0.37818445  0.61193097  0.87889169     0.15500
C2977       C  0.18392828  0.13709782  0.87018547    -0.11700
C2978       C  0.20463956  0.12595323  0.87558550     0.14800
C2979       C  0.23026340  0.15971853  0.88059903     0.01700
C2980       C  0.23040482  0.20153986  0.88054122    -0.16100
C2981       C  0.20598835  0.21120334  0.87552546    -0.10900
C2982       C  0.18492417  0.17951083  0.87003873     0.08400
C2983       C  0.19275963  0.07713225  0.87653591     0.09400
S2984       S  0.25962956  0.14968853  0.88761011    -0.25200
H2985       H  0.24724742  0.22555159  0.88473884     0.19700
S2986       S  0.15389184  0.18851926  0.86319565    -0.30900
H2987       H  0.16451065  0.11151044  0.86628235     0.10000
C2988       C  0.15720066  0.04790803  0.88106093     0.03200
C2989       C  0.14758742  0.00248736  0.88211608    -0.13200
C2990       C  0.17262727  0.98505453  0.87873118    -0.08900
C2991       C  0.20855220  0.01475501  0.87419904     0.06700
C2992       C  0.21767487  0.06002077  0.87308270    -0.14000
S2993       S  0.12338696  0.06836982  0.88541495    -0.30900
H2994       H  0.11975546  0.98011876  0.88551848     0.10900
S2995       S  0.24558005  0.99806924  0.86994406    -0.28000
H2996       H  0.24533068  0.08254284  0.86965585     0.08200
H2997       H  0.19059607  0.23256193  0.86156084     0.26600
H2998       H  0.09498601  0.02772235  0.88910437     0.21400
H2999       H  0.24871144  0.97361219  0.87563389     0.26700
H3000       H  0.26832973  0.11837806  0.88407060     0.15500
C3001       C  0.14666304  0.59931010  0.88517536    -0.11700
C3002       C  0.13450475  0.56997910  0.87946306     0.14800
C3003       C  0.11186530  0.57685937  0.87383388     0.01700
C3004       C  0.10544388  0.61499333  0.87379015    -0.16100
C3005       C  0.12112452  0.64696643  0.87924814    -0.10900
C3006       C  0.13981295  0.63726331  0.88518487     0.08400
C3007       C  0.15303546  0.53817723  0.87899785     0.09400
S3008       S  0.09468050  0.54102454  0.86624019    -0.25200
H3009       H  0.09051746  0.62121343  0.86923555     0.19700
S3010       S  0.16084172  0.67450009  0.89260196    -0.30900
H3011       H  0.16415472  0.59416402  0.88950160     0.10000
C3012       C  0.19500536  0.55213699  0.87561095     0.03200
C3013       C  0.21182593  0.52161560  0.87512005    -0.13200
C3014       C  0.18732172  0.47673189  0.87782252    -0.08900
C3015       C  0.14472061  0.46250434  0.88112132     0.06700
C3016       C  0.12862748  0.49373508  0.88182864    -0.14000
S3017       S  0.22697357  0.60876528  0.87179354    -0.30900
H3018       H  0.24422456  0.53267346  0.87253318     0.10900
S3019       S  0.10767804  0.40425415  0.88399454    -0.28000
H3020       H  0.09596405  0.48274398  0.88433537     0.08200
H3021       H  0.11885084  0.67329846  0.89369226     0.26600
H3022       H  0.26575680  0.60591144  0.86984263     0.21400
H3023       H  0.11572354  0.38409370  0.87820672     0.26700
H3024       H  0.08867583  0.50099976  0.86952060     0.15500
C3025       C  0.24427604  0.01860937  0.74315592    -0.11700
C3026       C  0.27585628  0.02916950  0.74853964     0.14800
C3027       C  0.32067095  0.06734636  0.74781137     0.01700
C3028       C  0.33292057  0.09341314  0.74169703    -0.16100
C3029       C  0.30118012  0.08320185  0.73626917    -0.10900
C3030       C  0.25593979  0.04500179  0.73709247     0.08400
C3031       C  0.26093358  0.99838673  0.75469915     0.09400
S3032       S  0.36359576  0.08498130  0.75451829    -0.25200
H3033       H  0.36750459  0.12246231  0.74123556     0.19700
S3034       S  0.21208741  0.02796805  0.73052485    -0.30900
H3035       H  0.21005787  0.98917793  0.74373697     0.10000
C3036       C  0.22578725  0.99459168  0.75907555     0.03200
C3037       C  0.21081289  0.96313764  0.76458560    -0.13200
C3038       C  0.23050420  0.93537762  0.76596760    -0.08900
C3039       C  0.26684561  0.94046042  0.76162812     0.06700
C3040       C  0.28082064  0.97103677  0.75601642    -0.14000
S3041       S  0.20058901  0.03065168  0.75775308    -0.30900
H3042       H  0.18346351  0.96033474  0.76784710     0.10900
S3043       S  0.29813863  0.91046163  0.76299191    -0.28000
H3044       H  0.30790455  0.97392089  0.75266778     0.08200
H3045       H  0.17993805  0.98508131  0.73334227     0.26600
H3046       H  0.17101785  0.01510447  0.76348166     0.21400
H3047       H  0.30900755  0.92505298  0.76988943     0.26700
H3048       H  0.33270859  0.06869703  0.76008244     0.15500
C3049       C  0.36761051  0.21861065  0.65876463    -0.11700
C3050       C  0.34740610  0.17978510  0.66304459     0.14800
C3051       C  0.32207070  0.13549738  0.66003967     0.01700
C3052       C  0.31917860  0.13107053  0.65282487    -0.16100
C3053       C  0.34036887  0.16999864  0.64855604    -0.10900
C3054       C  0.36414628  0.21423114  0.65158848     0.08400
C3055       C  0.35184574  0.18689663  0.67061099     0.09400
S3056       S  0.29378243  0.08333654  0.66509442    -0.25200
H3057       H  0.30133873  0.09707036  0.65053225     0.19700
S3058       S  0.39120435  0.26651156  0.64655476    -0.30900
H3059       H  0.38629300  0.25263304  0.66104072     0.10000
C3060       C  0.38236880  0.17891481  0.67461303     0.03200
C3061       C  0.38145057  0.18148563  0.68185407    -0.13200
C3062       C  0.35027828  0.19152797  0.68512290    -0.08900
C3063       C  0.32248192  0.20311462  0.68103537     0.06700
C3064       C  0.32359311  0.20067296  0.67385581    -0.14000
S3065       S  0.42071840  0.16327108  0.67050647    -0.30900
H3066       H  0.40237657  0.17216801  0.68497314     0.10900
S3067       S  0.28271162  0.21857442  0.68469509    -0.28000
H3068       H  0.30085011  0.20778133  0.67077397     0.08200
H3069       H  0.35881642  0.24959691  0.64115674     0.26600
H3070       H  0.44239750  0.16059225  0.67657295     0.21400
H3071       H  0.30678414  0.23574560  0.69093550     0.26700
H3072       H  0.28590461  0.10263420  0.67098531     0.15500
C3073       C  0.46751807  0.36519231  0.57850644    -0.11700
C3074       C  0.42072827  0.34047731  0.58022396     0.14800
C3075       C  0.38914025  0.34789368  0.57638947     0.01700
C3076       C  0.40476078  0.37827756  0.57076959    -0.16100
C3077       C  0.45145470  0.40220212  0.56891952    -0.10900
C3078       C  0.48326908  0.39625603  0.57297085     0.08400
C3079       C  0.40637223  0.30874604  0.58621229     0.09400
S3080       S  0.32841320  0.31916646  0.57828544    -0.25200
H3081       H  0.37999611  0.38252865  0.56772443     0.19700
S3082       S  0.54447387  0.42842841  0.57151852    -0.30900
H3083       H  0.49202722  0.36054100  0.58155334     0.10000
C3084       C  0.38481860  0.26055471  0.58541998     0.03200
C3085       C  0.37056911  0.23209088  0.59130495    -0.13200
C3086       C  0.37766702  0.25104552  0.59794955    -0.08900
C3087       C  0.39899360  0.29938888  0.59868471     0.06700
C3088       C  0.41381737  0.32759116  0.59283952    -0.14000
S3089       S  0.37581959  0.23550197  0.57692912    -0.30900
H3090       H  0.35401857  0.19507051  0.59074520     0.10900
S3091       S  0.40623783  0.32740111  0.60688073    -0.28000
H3092       H  0.42999994  0.36459608  0.59344407     0.08200
H3093       H  0.54539784  0.46900472  0.56938114     0.26600
H3094       H  0.36134589  0.19030170  0.57914122     0.21400
H3095       H  0.36641143  0.29163105  0.60994071     0.26700
H3096       H  0.33162332  0.31165435  0.58534431     0.15500
C3097       C  0.63088011  0.45516447  0.70639510    -0.11700
C3098       C  0.59105353  0.45430208  0.70880776     0.14800
C3099       C  0.59488311  0.49560616  0.71135946     0.01700
C3100       C  0.63835680  0.53525681  0.71197290    -0.16100
C3101       C  0.67826111  0.53546021  0.70982533    -0.10900
C3102       C  0.67426462  0.49532350  0.70681704     0.08400
C3103       C  0.54791734  0.40880197  0.70956709     0.09400
S3104       S  0.54576395  0.49958487  0.71411192    -0.25200
H3105       H  0.64123116  0.56589745  0.71430863     0.19700
S3106       S  0.72492548  0.49379606  0.70411994    -0.30900
H3107       H  0.62825937  0.42355053  0.70453198     0.10000
C3108       C  0.52564196  0.37927310  0.70392676     0.03200
C3109       C  0.48726097  0.33523632  0.70509338    -0.13200
C3110       C  0.47016311  0.31985635  0.71179414    -0.08900
C3111       C  0.49135543  0.35081848  0.71737095     0.06700
C3112       C  0.53023491  0.39397958  0.71621306    -0.14000
S3113       S  0.54564382  0.39777403  0.69523287    -0.30900
H3114       H  0.47120607  0.31227764  0.70076971     0.10900
S3115       S  0.47002521  0.33850150  0.72609020    -0.28000
H3116       H  0.54693547  0.41646967  0.72057300     0.08200
H3117       H  0.70203965  0.44829565  0.70164212     0.26600
H3118       H  0.51412953  0.35652873  0.69192944     0.21400
H3119       H  0.42343481  0.31711818  0.72412461     0.26700
H3120       H  0.51355222  0.46397233  0.70987373     0.15500
C3121       C  0.03436157  0.83425115  0.71074145    -0.11700
C3122       C  0.04347517  0.86742854  0.71581770     0.14800
C3123       C  0.00816492  0.86051687  0.72043533     0.01700
C3124       C  0.96374991  0.82305107  0.71947843    -0.16100
C3125       C  0.95327027  0.79298178  0.71385544    -0.10900
C3126       C  0.98995197  0.79682296  0.70977782     0.08400
C3127       C  0.08726678  0.91192195  0.71541597     0.09400
S3128       S  0.01677107  0.90022046  0.72730568    -0.25200
H3129       H  0.93658690  0.81960446  0.72285545     0.19700
S3130       S  0.98232099  0.75584472  0.70316818    -0.30900
H3131       H  0.06156203  0.83880112  0.70727398     0.10000
C3132       C  0.13026502  0.91608128  0.71692872     0.03200
C3133       C  0.17076338  0.95861344  0.71589563    -0.13200
C3134       C  0.16901607  0.99711355  0.71339086    -0.08900
C3135       C  0.12538052  0.99293717  0.71218251     0.06700
C3136       C  0.08541067  0.95050584  0.71310506    -0.14000
S3137       S  0.13339883  0.86727409  0.72018163    -0.30900
H3138       H  0.20390472  0.96160000  0.71687136     0.10900
S3139       S  0.11777703  0.04041862  0.70961451    -0.28000
H3140       H  0.05232389  0.94744375  0.71199332     0.08200
H3141       H  0.94580914  0.71790219  0.70651009     0.26600
H3142       H  0.18137960  0.89036041  0.72111611     0.21400
H3143       H  0.15342585  0.07246382  0.71383358     0.26700
H3144       H  0.06432605  0.91770581  0.72805389     0.15500
C3145       C  0.76010822  0.75993495  0.74301814    -0.11700
C3146       C  0.73275759  0.72613691  0.74782191     0.14800
C3147       C  0.72039376  0.67997709  0.74662663     0.01700
C3148       C  0.73571171  0.66857031  0.74064919    -0.16100
C3149       C  0.76381910  0.70233067  0.73580433    -0.10900
C3150       C  0.77576242  0.74890361  0.73702276     0.08400
C3151       C  0.71737042  0.74041243  0.75398895     0.09400
S3152       S  0.68502554  0.63407589  0.75251568    -0.25200
H3153       H  0.72593743  0.63287687  0.73984133     0.19700
S3154       S  0.80999522  0.79517712  0.73105559    -0.30900
H3155       H  0.76912207  0.79523308  0.74400591     0.10000
C3156       C  0.74669817  0.76026656  0.75969687     0.03200
C3157       C  0.73172484  0.77535508  0.76532122    -0.13200
C3158       C  0.68764756  0.77069308  0.76542111    -0.08900
C3159       C  0.65790681  0.74947534  0.75970706     0.06700
C3160       C  0.67332930  0.73516741  0.75404603    -0.14000
S3161       S  0.80299454  0.76569938  0.75985348    -0.30900
H3162       H  0.75453898  0.79063620  0.76969087     0.10900
S3163       S  0.60068679  0.74103699  0.75916031    -0.28000
H3164       H  0.65084482  0.71983660  0.74963421     0.08200
H3165       H  0.80547120  0.83006777  0.73432151     0.26600
H3166       H  0.81568275  0.78476044  0.76650188     0.21400
H3167       H  0.58443428  0.70876143  0.76458601     0.26700
H3168       H  0.70001464  0.66056919  0.75856853     0.15500
C3169       C  0.06395554  0.86437286  0.63053358    -0.11700
C3170       C  0.09650471  0.87673914  0.62525521     0.14800
C3171       C  0.08931484  0.84411051  0.62011400     0.01700
C3172       C  0.04770496  0.80226639  0.61990261    -0.16100
C3173       C  0.01295397  0.79131776  0.62481453    -0.10900
C3174       C  0.02284313  0.82174501  0.63046070     0.08400
C3175       C  0.13387018  0.92554745  0.62463614     0.09400
S3176       S  0.13028028  0.85552878  0.61333640    -0.25200
H3177       H  0.04135925  0.77916597  0.61561365     0.19700
S3178       S  0.98271421  0.81068105  0.63733391    -0.30900
H3179       H  0.06958573  0.88902346  0.63455642     0.10000
C3180       C  0.12878200  0.95618605  0.62022452     0.03200
C3181       C  0.16546765  0.00130714  0.61937553    -0.13200
C3182       C  0.20744420  0.01711751  0.62289578    -0.08900
C3183       C  0.21213259  0.98631608  0.62740586     0.06700
C3184       C  0.17519044  0.94121970  0.62828767    -0.14000
S3185       S  0.07521532  0.93788120  0.61570631    -0.30900
H3186       H  0.16126000  0.02461594  0.61597704     0.10900
S3187       S  0.26493081  0.00133260  0.63187720    -0.28000
H3188       H  0.17921545  0.91765456  0.63166168     0.08200
H3189       H  0.97659268  0.76680892  0.63877145     0.26600
H3190       H  0.08698538  0.98093545  0.61282907     0.21400
H3191       H  0.29361543  0.02595749  0.62631250     0.26700
H3192       H  0.16951223  0.88494383  0.61722932     0.15500
C3193       C  0.66433731  0.44710275  0.62236508    -0.11700
C3194       C  0.63513100  0.46389795  0.62048107     0.14800
C3195       C  0.65407825  0.51145372  0.61916444     0.01700
C3196       C  0.70176305  0.54110516  0.61984906    -0.16100
C3197       C  0.73082720  0.52419119  0.62183642    -0.10900
C3198       C  0.71170110  0.47643409  0.62299576     0.08400
C3199       C  0.58517444  0.43028541  0.62024568     0.09400
S3200       S  0.61936263  0.53647242  0.61678100    -0.25200
H3201       H  0.71609493  0.57773177  0.61902170     0.19700
S3202       S  0.74599448  0.45065958  0.62522930    -0.30900
H3203       H  0.64996615  0.41063431  0.62337348     0.10000
C3204       C  0.56654681  0.39625845  0.61508114     0.03200
C3205       C  0.52211810  0.35841757  0.61588728    -0.13200
C3206       C  0.49605766  0.35364150  0.62180989    -0.08900
C3207       C  0.51304679  0.39038191  0.62659772     0.06700
C3208       C  0.55758180  0.42798783  0.62580881    -0.14000
S3209       S  0.60063641  0.39959084  0.60768736    -0.30900
H3210       H  0.50920291  0.33073477  0.61215632     0.10900
S3211       S  0.48015130  0.39073389  0.63390050    -0.28000
H3212       H  0.57160440  0.45457171  0.62972493     0.08200
H3213       H  0.78344674  0.48047937  0.62108305     0.26600
H3214       H  0.56613467  0.36061114  0.60425003     0.21400
H3215       H  0.43698933  0.36415839  0.63071062     0.26700
H3216       H  0.58299230  0.49666461  0.61380529     0.15500
C3217       C  0.80546051  0.62026980  0.67467715    -0.11700
C3218       C  0.84523042  0.65331916  0.67124667     0.14800
C3219       C  0.88353361  0.68503118  0.67513698     0.01700
C3220       C  0.87998152  0.68570294  0.68229834    -0.16100
C3221       C  0.83927242  0.65465117  0.68574872    -0.10900
C3222       C  0.80243159  0.62005892  0.68189685     0.08400
C3223       C  0.84591611  0.65462872  0.66361801     0.09400
S3224       S  0.93720241  0.72676565  0.67124680    -0.25200
H3225       H  0.90878380  0.71204018  0.68520008     0.19700
S3226       S  0.74959521  0.57750983  0.68583785    -0.30900
H3227       H  0.77631752  0.59512909  0.67169997     0.10000
C3228       C  0.85120557  0.62199696  0.65982180     0.03200
C3229       C  0.85325477  0.62505389  0.65262290    -0.13200
C3230       C  0.85049977  0.66031576  0.64910630    -0.08900
C3231       C  0.84535828  0.69321613  0.65289859     0.06700
C3232       C  0.84315951  0.69006170  0.66014419    -0.14000
S3233       S  0.85687483  0.57735358  0.66416880    -0.30900
H3234       H  0.85728558  0.59988899  0.64968919     0.10900
S3235       S  0.83928662  0.73753905  0.64853847    -0.28000
H3236       H  0.83922979  0.71508285  0.66313125     0.08200
H3237       H  0.77184578  0.56356504  0.69062297     0.26600
H3238       H  0.86059697  0.55570517  0.65820390     0.21400
H3239       H  0.83060412  0.75600409  0.65446829     0.26700
H3240       H  0.93455047  0.69945142  0.66558725     0.15500
C3241       C  0.94716461  0.64648068  0.58691855    -0.11700
C3242       C  0.93831265  0.60094930  0.58666957     0.14800
C3243       C  0.91302675  0.57061978  0.59208857     0.01700
C3244       C  0.89818833  0.58655641  0.59765007    -0.16100
C3245       C  0.90727432  0.63235270  0.59798155    -0.10900
C3246       C  0.93150889  0.66227636  0.59240650     0.08400
C3247       C  0.95541877  0.58591831  0.58068252     0.09400
S3248       S  0.89902576  0.51122947  0.59226757    -0.25200
H3249       H  0.87985538  0.56285218  0.60181624     0.19700
S3250       S  0.94261678  0.72057515  0.59181305    -0.30900
H3251       H  0.96602574  0.66983453  0.58273919     0.10000
C3252       C  0.93422166  0.57804203  0.57414449     0.03200
C3253       C  0.94990270  0.56185354  0.56870950    -0.13200
C3254       C  0.98664923  0.55344766  0.56960445    -0.08900
C3255       C  0.00828616  0.56203502  0.57614008     0.06700
C3256       C  0.99257995  0.57821053  0.58157908    -0.14000
S3257       S  0.88649864  0.58771443  0.57274936    -0.30900
H3258       H  0.93390378  0.55637581  0.56368313     0.10900
S3259       S  0.05494693  0.55156750  0.57793453    -0.28000
H3260       H  0.00898012  0.58414777  0.58659100     0.08200
H3261       H  0.89845492  0.70950253  0.59406035     0.26600
H3262       H  0.87940947  0.57530912  0.56573844     0.21400
H3263       H  0.03877812  0.51278970  0.57363495     0.26700
H3264       H  0.89522710  0.50456974  0.58508855     0.15500
C3265       C  0.79130148  0.97060366  0.70861047    -0.11700
C3266       C  0.80761144  0.95904645  0.71451283     0.14800
C3267       C  0.83199754  0.99313655  0.71954808     0.01700
C3268       C  0.84330159  0.03873220  0.71827916    -0.16100
C3269       C  0.83047206  0.05113162  0.71208311    -0.10900
C3270       C  0.80189645  0.01601239  0.70738420     0.08400
C3271       C  0.80779266  0.91496406  0.71450674     0.09400
S3272       S  0.85225439  0.98096365  0.72746582    -0.25200
H3273       H  0.86459501  0.06508572  0.72198014     0.19700
S3274       S  0.77893856  0.02700001  0.69964164    -0.30900
H3275       H  0.77229010  0.94453488  0.70474641     0.10000
C3276       C  0.76753906  0.87163254  0.71515751     0.03200
C3277       C  0.77023760  0.83123849  0.71444845    -0.13200
C3278       C  0.81235044  0.83359373  0.71298085    -0.08900
C3279       C  0.85270843  0.87736382  0.71261545     0.06700
C3280       C  0.84987692  0.91717420  0.71331888    -0.14000
S3281       S  0.71302056  0.86795469  0.71685018    -0.30900
H3282       H  0.73935258  0.79784926  0.71479465     0.10900
S3283       S  0.90925970  0.88504944  0.71143363    -0.28000
H3284       H  0.88090639  0.95045930  0.71285562     0.08200
H3285       H  0.77489736  0.06344770  0.70244586     0.26600
H3286       H  0.68617762  0.81965156  0.71657520     0.21400
H3287       H  0.89984486  0.84706681  0.71556967     0.26700
H3288       H  0.81827513  0.93413696  0.72777803     0.15500
C3289       C  0.84386241  0.39369600  0.70499757    -0.11700
C3290       C  0.87260313  0.42813380  0.70965833     0.14800
C3291       C  0.90024952  0.41959774  0.71424492     0.01700
C3292       C  0.89553216  0.37571473  0.71450878    -0.16100
C3293       C  0.86446634  0.34020372  0.71016214    -0.10900
C3294       C  0.83935108  0.34976774  0.70520622     0.08400
C3295       C  0.86481323  0.46748277  0.71071454     0.09400
S3296       S  0.93974424  0.46252765  0.72019755    -0.25200
H3297       H  0.91471960  0.36860716  0.71834812     0.19700
S3298       S  0.79672390  0.30464459  0.69979414    -0.30900
H3299       H  0.82210515  0.40016884  0.70158636     0.10000
C3300       C  0.87852028  0.50354799  0.70592069     0.03200
C3301       C  0.86729832  0.53814061  0.70710442    -0.13200
C3302       C  0.84146086  0.53688017  0.71291763    -0.08900
C3303       C  0.82683826  0.49946386  0.71761997     0.06700
C3304       C  0.83954596  0.46613019  0.71650870    -0.14000
S3305       S  0.91020968  0.50538075  0.69831458    -0.30900
H3306       H  0.87828109  0.56598504  0.70342258     0.10900
S3307       S  0.78992752  0.49113863  0.72490774    -0.28000
H3308       H  0.82860345  0.43775873  0.72010132     0.08200
H3309       H  0.78396853  0.33237034  0.69601353     0.26600
H3310       H  0.91719179  0.54771479  0.69576800     0.21400
H3311       H  0.77476251  0.44419116  0.72599551     0.26700
H3312       H  0.94758446  0.50068542  0.71615874     0.15500
C3313       C  0.14912125  0.17738920  0.71907861    -0.11700
C3314       C  0.14113327  0.19988130  0.71360467     0.14800
C3315       C  0.17201596  0.21619583  0.70802143     0.01700
C3316       C  0.20675641  0.20498192  0.70762419    -0.16100
C3317       C  0.21202846  0.17794584  0.71272080    -0.10900
C3318       C  0.18466192  0.16678275  0.71877357     0.08400
C3319       C  0.09613855  0.19788404  0.71313952     0.09400
S3320       S  0.16599904  0.24754862  0.70089863    -0.25200
H3321       H  0.22830006  0.21550653  0.70307249     0.19700
S3322       S  0.19131300  0.13584033  0.72592682    -0.30900
H3323       H  0.12540289  0.16528691  0.72337485     0.10000
C3324       C  0.06073219  0.16389048  0.70905249     0.03200
C3325       C  0.01988188  0.16475826  0.70811800    -0.13200
C3326       C  0.01304754  0.19859330  0.71124109    -0.08900
C3327       C  0.04814326  0.23192255  0.71552207     0.06700
C3328       C  0.08913154  0.23090185  0.71648175    -0.14000
S3329       S  0.06754763  0.11916599  0.70501302    -0.30900
H3330       H  0.99283730  0.13861177  0.70494997     0.10900
S3331       S  0.04401148  0.27803727  0.71954671    -0.28000
H3332       H  0.11639646  0.25700925  0.71963003     0.08200
H3333       H  0.16357704  0.14284034  0.73062186     0.26600
H3334       H  0.02214206  0.09276037  0.70257087     0.21400
H3335       H  0.02024263  0.28431923  0.71404764     0.26700
H3336       H  0.14452013  0.26722080  0.70466695     0.15500
C3337       C  0.63620011  0.21050255  0.71240363    -0.11700
C3338       C  0.60277119  0.17031212  0.70911958     0.14800
C3339       C  0.61549695  0.13929268  0.70638420     0.01700
C3340       C  0.66078183  0.14827554  0.70724037    -0.16100
C3341       C  0.69377654  0.18765942  0.71075657    -0.10900
C3342       C  0.68150858  0.21962715  0.71322912     0.08400
C3343       C  0.55484571  0.16157486  0.70894985     0.09400
S3344       S  0.57557605  0.08730788  0.70189826    -0.25200
H3345       H  0.67011283  0.12387862  0.70526872     0.19700
S3346       S  0.72364021  0.27277443  0.71728272    -0.30900
H3347       H  0.62638849  0.23437516  0.71443733     0.10000
C3348       C  0.52155827  0.13115851  0.71366173     0.03200
C3349       C  0.47900326  0.12946444  0.71409622    -0.13200
C3350       C  0.46901432  0.15785174  0.70995459    -0.08900
C3351       C  0.50182586  0.18693670  0.70501756     0.06700
C3352       C  0.54421614  0.18826162  0.70456327    -0.14000
S3353       S  0.53467133  0.09726762  0.71951370    -0.30900
H3354       H  0.45427481  0.10777011  0.71794391     0.10900
S3355       S  0.49234091  0.22607565  0.69975967    -0.28000
H3356       H  0.57013425  0.21167072  0.70098544     0.08200
H3357       H  0.69614621  0.29346092  0.71751298     0.26600
H3358       H  0.49184289  0.07491833  0.72286565     0.21400
H3359       H  0.53776387  0.25300193  0.69738361     0.26700
H3360       H  0.54460926  0.10167460  0.69982655     0.15500
C3361       C  0.95560334  0.27419780  0.74588405    -0.11700
C3362       C  0.99337546  0.26741719  0.74532820     0.14800
C3363       C  0.99713551  0.24427734  0.73953867     0.01700
C3364       C  0.96267512  0.22762039  0.73450546    -0.16100
C3365       C  0.92479287  0.23461937  0.73498034    -0.10900
C3366       C  0.92127462  0.25801706  0.74081082     0.08400
C3367       C  0.02614291  0.28139045  0.75114687     0.09400
S3368       S  0.04549279  0.23575907  0.73821780    -0.25200
H3369       H  0.96642959  0.21033014  0.73005576     0.19700
S3370       S  0.87327834  0.26681128  0.74227166    -0.30900
H3371       H  0.95234263  0.29132451  0.75039790     0.10000
C3372       C  0.05853571  0.32783001  0.75242557     0.03200
C3373       C  0.08745945  0.33937928  0.75821142    -0.13200
C3374       C  0.08446963  0.30543345  0.76283112    -0.08900
C3375       C  0.05238417  0.25845487  0.76133236     0.06700
C3376       C  0.02368224  0.24727078  0.75556700    -0.14000
S3377       S  0.06296418  0.37232060  0.74667375    -0.30900
H3378       H  0.11190157  0.37526403  0.75919685     0.10900
S3379       S  0.04540051  0.21064345  0.76648110    -0.28000
H3380       H  0.99880964  0.21148013  0.75452926     0.08200
H3381       H  0.84004717  0.22279394  0.73994250     0.26600
H3382       H  0.09666821  0.40996689  0.75044386     0.21400
H3383       H  0.09143477  0.22260552  0.76546646     0.26700
H3384       H  0.07803677  0.27630872  0.74156246     0.15500
C3385       C  0.60394801  0.13184693  0.61593903    -0.11700
C3386       C  0.58405016  0.13797744  0.62188985     0.14800
C3387       C  0.59847094  0.13119000  0.62840698     0.01700
C3388       C  0.63514959  0.12288799  0.62885615    -0.16100
C3389       C  0.65857812  0.12108064  0.62294762    -0.10900
C3390       C  0.64045538  0.12276342  0.61637659     0.08400
C3391       C  0.55128429  0.15522475  0.62127608     0.09400
S3392       S  0.57388426  0.13612095  0.63640854    -0.25200
H3393       H  0.64688517  0.12030010  0.63396185     0.19700
S3394       S  0.66281464  0.11537121  0.60835383    -0.30900
H3395       H  0.59201328  0.13575067  0.61091633     0.10000
C3396       C  0.56444858  0.20058620  0.62326597     0.03200
C3397       C  0.53108757  0.21376732  0.62374436    -0.13200
C3398       C  0.48482452  0.18282089  0.62219477    -0.08900
C3399       C  0.47201896  0.13813587  0.61984237     0.06700
C3400       C  0.50550101  0.12492725  0.61934628    -0.14000
S3401       S  0.62363700  0.24150271  0.62535074    -0.30900
H3402       H  0.54085474  0.24819413  0.62545182     0.10900
S3403       S  0.41330577  0.09559583  0.61789436    -0.28000
H3404       H  0.49535786  0.09006344  0.61782027     0.08200
H3405       H  0.66536436  0.07703364  0.61072334     0.26600
H3406       H  0.61735469  0.27911923  0.62673573     0.21400
H3407       H  0.39390318  0.10812345  0.62328983     0.26700
H3408       H  0.53017626  0.12365427  0.63376258     0.15500
C3409       C  0.04882657  0.13442529  0.62137789    -0.11700
C3410       C  0.08246496  0.17750609  0.62385916     0.14800
C3411       C  0.06964204  0.21017585  0.62573350     0.01700
C3412       C  0.02340662  0.19875994  0.62512768    -0.16100
C3413       C  0.98969555  0.15562233  0.62258765    -0.10900
C3414       C  0.00288018  0.12304086  0.62074646     0.08400
C3415       C  0.13043743  0.18668072  0.62418743     0.09400
S3416       S  0.11053122  0.26721999  0.62872457    -0.25200
H3417       H  0.01386038  0.22414350  0.62649762     0.19700
S3418       S  0.96289188  0.06589203  0.61769193    -0.30900
H3419       H  0.05855618  0.10928718  0.61992513     0.10000
C3420       C  0.14415815  0.16600496  0.62929606     0.03200
C3421       C  0.18639836  0.16727928  0.62864386    -0.13200
C3422       C  0.21493722  0.18826787  0.62291541    -0.08900
C3423       C  0.20297974  0.21278743  0.61817008     0.06700
C3424       C  0.16070874  0.21128417  0.61881361    -0.14000
S3425       S  0.10649451  0.13562413  0.63642351    -0.30900
H3426       H  0.19547139  0.14876513  0.63232274     0.10900
S3427       S  0.23961771  0.24560515  0.61109860    -0.28000
H3428       H  0.15050738  0.22783071  0.61494193     0.08200
H3429       H  0.92668078  0.06021277  0.62191968     0.26600
H3430       H  0.13526853  0.12177741  0.63962813     0.21400
H3431       H  0.28102793  0.25623163  0.61444524     0.26700
H3432       H  0.14362328  0.25691576  0.63124229     0.15500
C3433       C  0.81028169  0.33721019  0.61921482    -0.11700
C3434       C  0.85722044  0.36931070  0.61847702     0.14800
C3435       C  0.88918622  0.35362313  0.61822352     0.01700
C3436       C  0.87375863  0.30658222  0.61908405    -0.16100
C3437       C  0.82701657  0.27495605  0.62015009    -0.10900
C3438       C  0.79490012  0.29033444  0.61997257     0.08400
C3439       C  0.87158013  0.41876460  0.61893277     0.09400
S3440       S  0.95003239  0.39207517  0.61709025    -0.25200
H3441       H  0.89853108  0.29486902  0.61920674     0.19700
S3442       S  0.73395309  0.25169436  0.62087259    -0.30900
H3443       H  0.78556019  0.34896874  0.61943068     0.10000
C3444       C  0.85791035  0.44034159  0.61397252     0.03200
C3445       C  0.86560794  0.48477992  0.61524565    -0.13200
C3446       C  0.88575143  0.50779851  0.62146195    -0.08900
C3447       C  0.90233624  0.48715996  0.62618663     0.06700
C3448       C  0.89475977  0.44292216  0.62488959    -0.14000
S3449       S  0.82892449  0.41055616  0.60615914    -0.30900
H3450       H  0.85285840  0.50022748  0.61159080     0.10900
S3451       S  0.93252988  0.51472582  0.63402616    -0.28000
H3452       H  0.90552434  0.42643764  0.62869099     0.08200
H3453       H  0.73373722  0.21529907  0.61726926     0.26600
H3454       H  0.82210747  0.44555206  0.60341151     0.21400
H3455       H  0.95399656  0.55959945  0.63128367     0.26700
H3456       H  0.94594326  0.42616593  0.61344603     0.15500
C3457       C  0.88603962  0.89106865  0.62339737    -0.11700
C3458       C  0.84703995  0.88415597  0.62702272     0.14800
C3459       C  0.81649667  0.83992306  0.62967643     0.01700
C3460       C  0.82451190  0.80332403  0.62840809    -0.16100
C3461       C  0.86275260  0.80980674  0.62456747    -0.10900
C3462       C  0.89460463  0.85483712  0.62224076     0.08400
C3463       C  0.83726420  0.92274177  0.62733814     0.09400
S3464       S  0.76636004  0.82798317  0.63461270    -0.25200
H3465       H  0.80016993  0.76931371  0.63032564     0.19700
S3466       S  0.94750169  0.86882643  0.61793079    -0.30900
H3467       H  0.90987218  0.92502471  0.62139676     0.10000
C3468       C  0.86363486  0.96209767  0.63143945     0.03200
C3469       C  0.85760812  0.00053672  0.63073193    -0.13200
C3470       C  0.82649739  0.00079568  0.62586863    -0.08900
C3471       C  0.79731577  0.95969906  0.62225479     0.06700
C3472       C  0.80319981  0.92141538  0.62298670    -0.14000
S3473       S  0.90636106  0.96406600  0.63733048    -0.30900
H3474       H  0.88007323  0.03185084  0.63352529     0.10900
S3475       S  0.75284639  0.95448695  0.61646870    -0.28000
H3476       H  0.78219171  0.89088093  0.61993240     0.08200
H3477       H  0.95652644  0.83964923  0.62204245     0.26600
H3478       H  0.92004366  0.00782858  0.64008366     0.21400
H3479       H  0.74666597  0.98853737  0.61968490     0.26700
H3480       H  0.78469087  0.87239757  0.63740846     0.15500
C3481       C  0.85749242  0.14715988  0.66006718    -0.11700
C3482       C  0.84493662  0.17815162  0.66279194     0.14800
C3483       C  0.83873137  0.20740727  0.65823228     0.01700
C3484       C  0.84552141  0.20545907  0.65117584    -0.16100
C3485       C  0.85581134  0.17298062  0.64833559    -0.10900
C3486       C  0.86153153  0.14320689  0.65291642     0.08400
C3487       C  0.83838284  0.17946096  0.67036701     0.09400
S3488       S  0.81984032  0.24655428  0.66101112    -0.25200
H3489       H  0.84057810  0.22862377  0.64784514     0.19700
S3490       S  0.87174891  0.09820356  0.65002376    -0.30900
H3491       H  0.86260478  0.12469806  0.66353356     0.10000
C3492       C  0.80468526  0.14061655  0.67398075     0.03200
C3493       C  0.80004996  0.14342955  0.68112581    -0.13200
C3494       C  0.82717088  0.18462658  0.68474055    -0.08900
C3495       C  0.85939637  0.22401798  0.68106839     0.06700
C3496       C  0.86530214  0.22080487  0.67397941    -0.14000
S3497       S  0.76730514  0.08734847  0.66954177    -0.30900
H3498       H  0.77607916  0.11295871  0.68397083     0.10900
S3499       S  0.89669501  0.27803963  0.68525779    -0.28000
H3500       H  0.89120394  0.25081518  0.67124686     0.08200
H3501       H  0.83196879  0.07744542  0.64586821     0.26600
H3502       H  0.73779178  0.06482527  0.67512570     0.21400
H3503       H  0.86100447  0.27857995  0.68893955     0.26700
H3504       H  0.79090711  0.21810227  0.66629515     0.15500
C3505       C  0.68430006  0.03066128  0.59287711    -0.11700
C3506       C  0.69289902  0.06012164  0.58722332     0.14800
C3507       C  0.73110889  0.10542539  0.58748878     0.01700
C3508       C  0.75979950  0.11974488  0.59331757    -0.16100
C3509       C  0.75195260  0.08958131  0.59883756    -0.10900
C3510       C  0.71323248  0.04481894  0.59865324     0.08400
C3511       C  0.66056997  0.04287039  0.58125828     0.09400
S3512       S  0.74567510  0.14635945  0.58054763    -0.25200
H3513       H  0.78909665  0.15438787  0.59348434     0.19700
S3514       S  0.69774811  0.00467109  0.60571777    -0.30900
H3515       H  0.65437148  0.99640154  0.59281852     0.10000
C3516       C  0.65374537  0.00436881  0.57737830     0.03200
C3517       C  0.62299088  0.98932171  0.57178089    -0.13200
C3518       C  0.59907970  0.01210499  0.56989683    -0.08900
C3519       C  0.60488904  0.04975495  0.57393994     0.06700
C3520       C  0.63550118  0.06468543  0.57953538    -0.14000
S3521       S  0.68607510  0.97582092  0.57928030    -0.30900
H3522       H  0.61898719  0.96078685  0.56867292     0.10900
S3523       S  0.57345265  0.07946648  0.57236448    -0.28000
H3524       H  0.63968697  0.09348725  0.58260461     0.08200
H3525       H  0.71477785  0.03770790  0.61101149     0.26600
H3526       H  0.66530904  0.94100744  0.57427504     0.21400
H3527       H  0.53282348  0.04004590  0.57019589     0.26700
H3528       H  0.72946714  0.11377556  0.57519143     0.15500
loop_ 
_geom_bond_atom_site_label_1 
_geom_bond_atom_site_label_2 
_geom_bond_distance 
_geom_bond_site_symmetry_2 
_ccdc_geom_bond_type 
O1           Ni7   1.898       .  S
O1           C22   1.263       .  A
O2          Ni25   1.894       .  S
O2           C11   1.265       .  A
O3           Ni7   1.892       .  S
O3          Ni25   1.889       .  S
O3          Ni19   1.926       .  S
O3           H26   0.966       .  S
C4           O21   1.281       .  A
C4           O13   1.282       .  A
C4         C3413   1.484       .  S
O5          Ni24   1.952       .  S
O5           C11   1.278       .  A
O6          Ni24   1.905       .  S
O6            C8   1.270       .  A
Ni7          O10   1.909       .  S
Ni7          O12   1.908       .  S
C8           O18   1.276       .  A
C8         C3470   1.486       .  S
O9          Ni25   1.944       .  S
O9           C15   1.282       .  A
O10          C15   1.278       .  A
C11        C3509   1.474       .  S
O12          C14   1.266       .  A
O13         Ni24   1.938       .  S
C14          O20   1.267       .  A
C14        C3437   1.470       .  S
C15        C3389   1.500       .  S
H16          O17   0.966       .  S
O17         Ni25   1.911       .  S
O17         Ni19   1.909       .  S
O17         Ni24   1.891       .  S
O18         Ni19   1.943       .  S
Ni19         O23   1.940       .  S
Ni19         O21   1.923       .  S
O20         Ni25   1.926       .  S
C22          O23   1.273       .  A
C22        C3485   1.496       .  S
O27         Ni33   1.943       .  S
O27          C48   1.274       .  A
O28         Ni51   1.929       .  S
O28          C37   1.271       .  A
O29         Ni33   1.902       .  S
O29         Ni51   1.908       .  S
O29         Ni45   1.911       .  S
O29          H52   0.966       .  S
C30          O47   1.278       .  A
C30          O39   1.278       .  A
C30        C3326   1.483   1_655  S
O31         Ni50   1.910       .  S
O31          C37   1.263       .  A
O32         Ni50   1.901       .  S
O32          C34   1.266       .  A
Ni33         O36   1.929       .  S
Ni33         O38   1.901       .  S
C34          O44   1.270       .  A
C34        C3269   1.482       .  S
O35         Ni51   1.927       .  S
O35          C41   1.280       .  A
O36          C41   1.280       .  A
C37        C3494   1.476       .  S
O38          C40   1.268       .  A
O39         Ni50   1.920       .  S
C40          O46   1.275       .  A
C40        C3293   1.479       .  S
C41        C3341   1.481       .  S
H42          O43   0.966       .  S
O43         Ni51   1.920       .  S
O43         Ni45   1.897       .  S
O43         Ni50   1.906       .  S
O44         Ni45   1.929       .  S
Ni45         O49   1.892       .  S
Ni45         O47   1.927       .  S
O46         Ni51   1.935       .  S
C48          O49   1.264       .  A
C48        C3365   1.484       .  S
O53         Ni59   1.907       .  S
O53          C74   1.264       .  A
O54         Ni77   1.905       .  S
O54          C63   1.269       .  A
O55         Ni59   1.903       .  S
O55         Ni77   1.895       .  S
O55         Ni71   1.922       .  S
O55          H78   0.966       .  S
C56          O73   1.278       .  A
C56          O65   1.282       .  A
C56        C3461   1.490       .  S
O57         Ni76   1.954       .  S
O57          C63   1.277       .  A
O58         Ni76   1.902       .  S
O58          C60   1.270       .  A
Ni59         O62   1.916       .  S
Ni59         O64   1.902       .  S
C60          O70   1.275       .  A
C60        C3173   1.493   1_655  S
O61         Ni77   1.925       .  S
O61          C67   1.278       .  A
O62          C67   1.276       .  A
C63        C3245   1.502       .  S
O64          C66   1.266       .  A
O65         Ni76   1.942       .  S
C66          O72   1.273       .  A
C66        C3197   1.477       .  S
C67        C3446   1.484       .  S
H68          O69   0.966       .  S
O69         Ni77   1.912       .  S
O69         Ni71   1.914       .  S
O69         Ni76   1.901       .  S
O70         Ni71   1.942       .  S
Ni71         O75   1.930       .  S
Ni71         O73   1.920       .  S
O72         Ni77   1.938       .  S
C74          O75   1.272       .  A
C74        C3230   1.477       .  S
O79         Ni85   1.949       .  S
O79         C100   1.276       .  A
O80        Ni103   1.916       .  S
O80          C89   1.271       .  A
O81         Ni85   1.904       .  S
O81        Ni103   1.904       .  S
O81         Ni97   1.896       .  S
O81         H104   0.966       .  S
C82          O99   1.267       .  A
C82          O91   1.271       .  A
C82        C3278   1.484       .  S
O83        Ni102   1.910       .  S
O83          C89   1.269       .  A
O84        Ni102   1.900       .  S
O84          C86   1.268       .  A
Ni85         O88   1.929       .  S
Ni85         O90   1.908       .  S
C86          O96   1.278       .  A
C86        C3125   1.488       .  S
O87        Ni103   1.924       .  S
O87          C93   1.279       .  A
O88          C93   1.278       .  A
C89        C3221   1.479       .  S
O90          C92   1.269       .  A
O91        Ni102   1.932       .  S
C92          O98   1.276       .  A
C92        C3101   1.481       .  S
C93        C3302   1.499       .  S
H94          O95   0.966       .  S
O95        Ni103   1.933       .  S
O95         Ni97   1.911       .  S
O95        Ni102   1.920       .  S
O96         Ni97   1.951       .  S
Ni97        O101   1.892       .  S
Ni97         O99   1.915       .  S
O98        Ni103   1.941       .  S
C100        O101   1.261       .  A
C100       C3149   1.495       .  S
O105       Ni111   1.904       .  S
O105        C126   1.263       .  A
O106       Ni129   1.898       .  S
O106        C115   1.266       .  A
O107       Ni111   1.907       .  S
O107       Ni129   1.893       .  S
O107       Ni123   1.925       .  S
O107        H130   0.966       .  S
C108        O125   1.279       .  A
C108        O117   1.281       .  A
C108       C3182   1.493       .  S
O109       Ni128   1.948       .  S
O109        C115   1.276       .  A
O110       Ni128   1.905       .  S
O110        C112   1.269       .  A
Ni111       O114   1.917       .  S
Ni111       O116   1.904       .  S
C112        O122   1.275       .  A
C112       C3422   1.484       .  S
O113       Ni129   1.924       .  S
O113        C119   1.277       .  A
O114        C119   1.275       .  A
C115       C3086   1.478       .  S
O116        C118   1.268       .  A
O117       Ni128   1.935       .  S
C118        O124   1.271       .  A
C118       C3398   1.474       .  S
C119       C3206   1.484       .  S
H120        O121   0.966       .  S
O121       Ni129   1.916       .  S
O121       Ni123   1.916       .  S
O121       Ni128   1.905       .  S
O122       Ni123   1.936       .  S
Ni123       O127   1.933       .  S
Ni123       O125   1.925       .  S
O124       Ni129   1.930       .  S
C126        O127   1.271       .  A
C126       C3053   1.474       .  S
O131       Ni137   1.955       .  S
O131        C152   1.278       .  A
O132       Ni155   1.925       .  S
O132        C141   1.272       .  A
O133       Ni137   1.911       .  S
O133       Ni155   1.911       .  S
O133       Ni149   1.901       .  S
O133        H156   0.966       .  S
C134        O151   1.269       .  A
C134        O143   1.268       .  A
C134       C3134   1.487   1_545  S
O135       Ni154   1.904       .  S
O135        C141   1.266       .  A
O136       Ni154   1.902       .  S
O136        C138   1.271       .  A
Ni137       O140   1.935       .  S
Ni137       O142   1.904       .  S
C138        O148   1.277       .  A
C138       C3317   1.495       .  S
O139       Ni155   1.926       .  S
O139        C145   1.279       .  A
O140        C145   1.279       .  A
C141       C3062   1.476       .  S
O142        C144   1.270       .  A
O143       Ni154   1.924       .  S
C144        O150   1.275       .  A
C144       C3350   1.485       .  S
C145       C3110   1.498       .  S
H146        O147   0.966       .  S
O147       Ni155   1.934       .  S
O147       Ni149   1.913       .  S
O147       Ni154   1.921       .  S
O148       Ni149   1.952       .  S
Ni149       O153   1.900       .  S
Ni149       O151   1.918       .  S
O150       Ni155   1.937       .  S
C152        O153   1.264       .  A
C152       C3029   1.502       .  S
O157       Ni163   1.906       .  S
O157        C178   1.263       .  A
O158       Ni181   1.906       .  S
O158        C167   1.269       .  A
O159       Ni163   1.897       .  S
O159       Ni181   1.899       .  S
O159       Ni175   1.927       .  S
O159        H182   0.966       .  S
C160        O177   1.281       .  A
C160        O169   1.282       .  A
C160       C2933   1.484       .  S
O161       Ni180   1.947       .  S
O161        C167   1.277       .  A
O162       Ni180   1.900       .  S
O162        C164   1.269       .  A
Ni163       O166   1.918       .  S
Ni163       O168   1.900       .  S
C164        O174   1.277       .  A
C164       C2981   1.492       .  S
O165       Ni181   1.933       .  S
O165        C171   1.278       .  A
O166        C171   1.278       .  A
C167       C2885   1.485       .  S
O168        C170   1.267       .  A
O169       Ni180   1.934       .  S
C170        O176   1.275       .  A
C170       C3014   1.486       .  S
C171       C2966   1.500       .  S
H172        O173   0.966       .  S
O173       Ni181   1.911       .  S
O173       Ni175   1.910       .  S
O173       Ni180   1.895       .  S
O174       Ni175   1.947       .  S
Ni175       O179   1.939       .  S
Ni175       O177   1.928       .  S
O176       Ni181   1.942       .  S
C178        O179   1.274       .  A
C178       C2918   1.480       .  S
O183       Ni189   1.947       .  S
O183        C204   1.277       .  A
O184       Ni207   1.915       .  S
O184        C193   1.270       .  A
O185       Ni189   1.901       .  S
O185       Ni207   1.902       .  S
O185       Ni201   1.897       .  S
O185        H208   0.966       .  S
C186        O203   1.267       .  A
C186        O195   1.271       .  A
C186       C2870   1.475   1_455  S
O187       Ni206   1.913       .  S
O187        C193   1.268       .  A
O188       Ni206   1.907       .  S
O188        C190   1.271       .  A
Ni189       O192   1.930       .  S
Ni189       O194   1.907       .  S
C190        O200   1.275       .  A
C190       C2789   1.495       .  S
O191       Ni207   1.922       .  S
O191        C197   1.277       .  A
O192        C197   1.280       .  A
C193       C2909   1.467       .  S
O194        C196   1.271       .  A
O195       Ni206   1.932       .  S
C196        O202   1.275       .  A
C196       C2822   1.498       .  S
C197       C2846   1.489       .  S
H198        O199   0.966       .  S
O199       Ni207   1.929       .  S
O199       Ni201   1.910       .  S
O199       Ni206   1.916       .  S
O200       Ni201   1.948       .  S
Ni201       O205   1.893       .  S
Ni201       O203   1.909       .  S
O202       Ni207   1.938       .  S
C204        O205   1.261       .  A
C204       C3374   1.495       .  S
O209       Ni215   1.915       .  S
O209        C230   1.267       .  A
O210       Ni233   1.894       .  S
O210        C219   1.266       .  A
O211       Ni215   1.902       .  S
O211       Ni233   1.899       .  S
O211       Ni227   1.925       .  S
O211        H234   0.966       .  S
C212        O229   1.282       .  A
C212        O221   1.283       .  A
C212       C2750   1.491       .  S
O213       Ni232   1.952       .  S
O213        C219   1.278       .  A
O214       Ni232   1.906       .  S
O214        C216   1.269       .  A
Ni215       O218   1.923       .  S
Ni215       O220   1.904       .  S
C216        O226   1.276       .  A
C216       C2942   1.487   1_565  S
O217       Ni233   1.929       .  S
O217        C223   1.278       .  A
O218        C223   1.276       .  A
C219       C2702   1.479       .  S
O220        C222   1.268       .  A
O221       Ni232   1.942       .  S
C222        O228   1.272       .  A
C222       C2957   1.483       .  S
C223       C2717   1.487       .  S
H224        O225   0.963       .  S
O225       Ni233   1.905       .  S
O225       Ni227   1.904       .  S
O225       Ni232   1.896       .  S
O226       Ni227   1.943       .  S
Ni227       O231   1.929       .  S
Ni227       O229   1.927       .  S
O228       Ni233   1.934       .  S
C230        O231   1.273       .  A
C230       C2774   1.485       .  S
O235       Ni241   1.936       .  S
O235        C256   1.272       .  A
O236       Ni259   1.923       .  S
O236        C245   1.272       .  A
O237       Ni241   1.887       .  S
O237       Ni259   1.900       .  S
O237       Ni253   1.907       .  S
O237        H260   0.966       .  S
C238        O255   1.277       .  A
C238        O247   1.279       .  A
C238       C2669   1.480       .  S
O239       Ni258   1.921       .  S
O239        C245   1.266       .  A
O240       Ni258   1.900       .  S
O240        C242   1.265       .  A
Ni241       O244   1.923       .  S
Ni241       O246   1.901       .  S
C242        O252   1.270       .  A
C242       C2861   1.482       .  S
O243       Ni259   1.925       .  S
O243        C249   1.280       .  A
O244        C249   1.279       .  A
C245       C2765   1.470       .  S
O246        C248   1.270       .  A
O247       Ni258   1.926       .  S
C248        O254   1.278       .  A
C248       C2837   1.493       .  S
C249       C2654   1.477       .  S
H250        O251   0.967       .  S
O251       Ni259   1.911       .  S
O251       Ni253   1.899       .  S
O251       Ni258   1.902       .  S
O252       Ni253   1.929       .  S
Ni253       O257   1.899       .  S
Ni253       O255   1.915       .  S
O254       Ni259   1.945       .  S
C256        O257   1.267       .  A
C256       C3158   1.489       .  S
O261       Ni267   1.906       .  S
O261        C282   1.264       .  A
O262       Ni285   1.896       .  S
O262        C271   1.265       .  A
O263       Ni267   1.896       .  S
O263       Ni285   1.894       .  S
O263       Ni279   1.921       .  S
O263        H286   0.966       .  S
C264        O281   1.280       .  A
C264        O273   1.287       .  A
C264       C2990   1.496       .  S
O265       Ni284   1.962       .  S
O265        C271   1.281       .  A
O266       Ni284   1.907       .  S
O266        C268   1.270       .  A
Ni267       O270   1.916       .  S
Ni267       O272   1.907       .  S
C268        O278   1.278       .  A
C268       C2741   1.487       .  S
O269       Ni285   1.934       .  S
O269        C275   1.279       .  A
O270        C275   1.278       .  A
C271       C2597   1.480       .  S
O272        C274   1.267       .  A
O273       Ni284   1.950       .  S
C274        O280   1.270       .  A
C274       C2726   1.478       .  S
C275       C3005   1.494       .  S
H276        O277   0.966       .  S
O277       Ni285   1.907       .  S
O277       Ni279   1.906       .  S
O277       Ni284   1.892       .  S
O278       Ni279   1.945       .  S
Ni279       O283   1.937       .  S
Ni279       O281   1.920       .  S
O280       Ni285   1.931       .  S
C282        O283   1.275       .  A
C282       C2630   1.491       .  S
O287       Ni293   1.946       .  S
O287        C308   1.273       .  A
O288       Ni311   1.934       .  S
O288        C297   1.276       .  A
O289       Ni293   1.894       .  S
O289       Ni311   1.914       .  S
O289       Ni305   1.912       .  S
O289        H312   0.966       .  S
C290        O307   1.274       .  A
C290        O299   1.279       .  A
C290       C2798   1.482   1_565  S
O291       Ni310   1.920       .  S
O291        C297   1.267       .  A
O292       Ni310   1.898       .  S
O292        C294   1.266       .  A
Ni293       O296   1.928       .  S
Ni293       O298   1.892       .  S
C294        O304   1.270       .  A
C294       C2678   1.494       .  S
O295       Ni311   1.938       .  S
O295        C301   1.282       .  A
O296        C301   1.280       .  A
C297       C2621   1.477       .  S
O298        C300   1.269       .  A
O299       Ni310   1.931       .  S
C300        O306   1.279       .  A
C300       C2645   1.483       .  S
C301       C2813   1.490       .  S
H302        O303   0.967       .  S
O303       Ni311   1.911       .  S
O303       Ni305   1.901       .  S
O303       Ni310   1.901       .  S
O304       Ni305   1.938       .  S
Ni305       O309   1.902       .  S
Ni305       O307   1.910       .  S
O306       Ni311   1.945       .  S
C308        O309   1.267       .  A
C308       C3038   1.502       .  S
O313       Ni319   1.908       .  S
O313        C334   1.265       .  A
O314       Ni337   1.898       .  S
O314        C323   1.265       .  A
O315       Ni319   1.902       .  S
O315       Ni337   1.893       .  S
O315       Ni331   1.928       .  S
O315        H338   0.966       .  S
C316        O333   1.282       .  A
C316        O325   1.281       .  A
C316       C2534   1.494       .  S
O317       Ni336   1.947       .  S
O317        C323   1.276       .  A
O318       Ni336   1.901       .  S
O318        C320   1.269       .  A
Ni319       O322   1.920       .  S
Ni319       O324   1.904       .  S
C320        O330   1.278       .  A
C320       C2486   1.489       .  S
O321       Ni337   1.928       .  S
O321        C327   1.280       .  A
O322        C327   1.278       .  A
C323       C3077   1.483       .  S
O324        C326   1.266       .  A
O325       Ni336   1.927       .  S
C326        O332   1.268       .  A
C326       C2501   1.472       .  S
C327       C2549   1.487       .  S
H328        O329   0.966       .  S
O329       Ni337   1.911       .  S
O329       Ni331   1.911       .  S
O329       Ni336   1.893       .  S
O330       Ni331   1.945       .  S
Ni331       O335   1.937       .  S
Ni331       O333   1.932       .  S
O332       Ni337   1.925       .  S
C334        O335   1.274       .  A
C334       C2573   1.488       .  S
O339       Ni345   1.947       .  S
O339        C360   1.276       .  A
O340       Ni363   1.932       .  S
O340        C349   1.271       .  A
O341       Ni345   1.900       .  S
O341       Ni363   1.912       .  S
O341       Ni357   1.911       .  S
O341        H364   0.966       .  S
C342        O359   1.277       .  A
C342        O351   1.277       .  A
C342       C2438   1.497       .  S
O343       Ni362   1.914       .  S
O343        C349   1.266       .  A
O344       Ni362   1.903       .  S
O344        C346   1.267       .  A
Ni345       O348   1.933       .  S
Ni345       O350   1.903       .  S
C346        O356   1.273       .  A
C346       C2381   1.488       .  S
O347       Ni363   1.914       .  S
O347        C353   1.277       .  A
O348        C353   1.281       .  A
C349       C2582   1.493       .  S
O350        C352   1.268       .  A
O351       Ni362   1.909       .  S
C352        O358   1.276       .  A
C352       C2357   1.485       .  S
C353       C2405   1.479       .  S
H354        O355   0.966       .  S
O355       Ni363   1.912       .  S
O355       Ni357   1.906       .  S
O355       Ni362   1.901       .  S
O356       Ni357   1.938       .  S
Ni357       O361   1.908       .  S
Ni357       O359   1.928       .  S
O358       Ni363   1.940       .  S
C360        O361   1.268       .  A
C360       C2462   1.479       .  S
O365       Ni371   1.912       .  S
O365        C386   1.265   1_545  A
O366       Ni389   1.896       .  S
O366        C375   1.264   1_545  A
O367       Ni371   1.905       .  S
O367       Ni389   1.896       .  S
O367       Ni383   1.918   1_545  S
O367        H390   0.966   1_545  S
C368        O385   1.279       .  A
C368        O377   1.281       .  A
C368       C2309   1.491       .  S
O369       Ni388   1.950       .  S
O369        C375   1.277       .  A
O370       Ni388   1.905       .  S
O370        C372   1.270       .  A
Ni371       O374   1.914       .  S
Ni371       O376   1.905       .  S
C372        O382   1.276       .  A
C372       C2525   1.490       .  S
O373       Ni389   1.928       .  S
O373        C379   1.279       .  A
O374        C379   1.276       .  A
C375       C3518   1.485   1_565  S
O376        C378   1.266       .  A
O377       Ni388   1.933       .  S
C378        O384   1.269       .  A
C378       C2558   1.473       .  S
C379       C2342   1.486       .  S
H380        O381   0.966       .  S
O381       Ni389   1.909   1_565  S
O381       Ni383   1.914       .  S
O381       Ni388   1.900       .  S
O382       Ni383   1.942       .  S
Ni383       O387   1.932       .  S
Ni383       O385   1.922       .  S
O384       Ni389   1.931       .  S
C386        O387   1.273       .  A
C386       C2285   1.481       .  S
O391       Ni397   1.952       .  S
O391        C412   1.276   1_545  A
O392       Ni415   1.926       .  S
O392        C401   1.271   1_545  A
O393       Ni397   1.900   1_565  S
O393       Ni415   1.907   1_565  S
O393       Ni409   1.915       .  S
O393        H416   0.966       .  S
C394        O411   1.277       .  A
C394        O403   1.277       .  A
C394       C2222   1.482       .  S
O395       Ni414   1.914       .  S
O395        C401   1.266       .  A
O396       Ni414   1.902       .  S
O396        C398   1.266       .  A
Ni397       O400   1.936       .  S
Ni397       O402   1.903       .  S
C398        O408   1.269       .  A
C398       C2429   1.471       .  S
O399       Ni415   1.938       .  S
O399        C405   1.281       .  A
O400        C405   1.282       .  A
C401       C2294   1.474   1_565  S
O402        C404   1.270       .  A
O403       Ni414   1.925       .  S
C404        O410   1.274       .  A
C404       C2414   1.490       .  S
C405       C2237   1.506       .  S
H406        O407   0.966       .  S
O407       Ni415   1.923   1_565  S
O407       Ni409   1.904       .  S
O407       Ni414   1.905       .  S
O408       Ni409   1.926       .  S
Ni409       O413   1.894       .  S
Ni409       O411   1.924       .  S
O410       Ni415   1.933       .  S
C412        O413   1.265       .  A
C412       C2270   1.495       .  S
O417       Ni423   1.901       .  S
O417        C438   1.263   1_655  A
O418       Ni441   1.896       .  S
O418        C427   1.267   1_655  A
O419       Ni423   1.897       .  S
O419       Ni441   1.891       .  S
O419       Ni435   1.922   1_655  S
O419        H442   0.966   1_655  S
C420        O437   1.279       .  A
C420        O429   1.283       .  A
C420       C2477   1.486       .  S
O421       Ni440   1.959       .  S
O421        C427   1.279       .  A
O422       Ni440   1.903       .  S
O422        C424   1.271       .  A
Ni423       O426   1.915       .  S
Ni423       O428   1.900       .  S
C424        O434   1.277       .  A
C424       C2318   1.498       .  S
O425       Ni441   1.926       .  S
O425        C431   1.277       .  A
O426        C431   1.278       .  A
C427       C3254   1.491   1_455  S
O428        C430   1.265       .  A
O429       Ni440   1.943       .  S
C430        O436   1.273       .  A
C430       C2333   1.480       .  S
C431       C2510   1.483       .  S
H432        O433   0.966       .  S
O433       Ni441   1.912   1_455  S
O433       Ni435   1.914       .  S
O433       Ni440   1.899       .  S
O434       Ni435   1.945       .  S
Ni435       O439   1.940       .  S
Ni435       O437   1.924       .  S
O436       Ni441   1.939       .  S
C438        O439   1.273       .  A
C438       C2189   1.487       .  S
O443       Ni449   1.952       .  S
O443        C464   1.277   1_655  A
O444       Ni467   1.924       .  S
O444        C453   1.274       .  A
O445       Ni449   1.901       .  S
O445       Ni467   1.900       .  S
O445       Ni461   1.892   1_655  S
O445        H468   0.963   1_655  S
C446        O463   1.265       .  A
C446        O455   1.270       .  A
C446       C2390   1.485       .  S
O447       Ni466   1.911       .  S
O447        C453   1.269   1_455  A
O448       Ni466   1.904       .  S
O448        C450   1.271       .  A
Ni449       O452   1.928       .  S
Ni449       O454   1.906       .  S
C450        O460   1.281       .  A
C450       C2213   1.487       .  S
O451       Ni467   1.938       .  S
O451        C457   1.283       .  A
O452        C457   1.281       .  A
C453       C2198   1.473       .  S
O454        C456   1.271       .  A
O455       Ni466   1.937       .  S
C456        O462   1.279       .  A
C456       C2246   1.496       .  S
C457       C2366   1.493       .  S
H458        O459   0.966       .  S
O459       Ni467   1.944   1_455  S
O459       Ni461   1.911       .  S
O459       Ni466   1.921       .  S
O460       Ni461   1.960       .  S
Ni461       O465   1.892       .  S
Ni461       O463   1.912       .  S
O462       Ni467   1.951       .  S
C464        O465   1.263       .  A
C464       C2174   1.488       .  S
O469       Ni475   1.922       .  S
O469        C490   1.267       .  A
O470       Ni493   1.899       .  S
O470        C479   1.265       .  A
O471       Ni475   1.911       .  S
O471       Ni493   1.904       .  S
O471       Ni487   1.913       .  S
O471        H494   0.966       .  S
C472        O489   1.278       .  A
C472        O481   1.279       .  A
C472       C2093   1.486       .  S
O473       Ni492   1.942       .  S
O473        C479   1.274       .  A
O474       Ni492   1.903       .  S
O474        C476   1.269       .  A
Ni475       O478   1.933       .  S
Ni475       O480   1.898       .  S
C476        O486   1.278       .  A
C476       C2045   1.484       .  S
O477       Ni493   1.906       .  S
O477        C483   1.272       .  A
O478        C483   1.277       .  A
C479       C2150   1.476       .  S
O480        C482   1.265       .  A
O481       Ni492   1.925       .  S
C482        O488   1.271       .  A
C482       C2030   1.473       .  S
C483       C2069   1.479       .  S
H484        O485   0.966       .  S
O485       Ni493   1.912       .  S
O485       Ni487   1.912       .  S
O485       Ni492   1.903       .  S
O486       Ni487   1.941       .  S
Ni487       O491   1.924       .  S
Ni487       O489   1.925       .  S
O488       Ni493   1.937       .  S
C490        O491   1.272       .  A
C490       C2126   1.475       .  S
O495       Ni501   1.946       .  S
O495        C516   1.277       .  A
O496       Ni519   1.931       .  S
O496        C505   1.272       .  A
O497       Ni501   1.896       .  S
O497       Ni519   1.912       .  S
O497       Ni513   1.917       .  S
O497        H520   0.964       .  S
C498        O515   1.280       .  A
C498        O507   1.277       .  A
C498       C1997   1.478       .  S
O499       Ni518   1.906       .  S
O499        C505   1.264       .  A
O500       Ni518   1.904       .  S
O500        C502   1.267       .  A
Ni501       O504   1.931       .  S
Ni501       O506   1.903       .  S
C502        O512   1.271       .  A
C502       C1958   1.481       .  S
O503       Ni519   1.937       .  S
O503        C509   1.282       .  A
O504        C509   1.280       .  A
C505       C2117   1.478       .  S
O506        C508   1.271       .  A
O507       Ni518   1.922       .  S
C508        O514   1.276       .  A
C508       C1925   1.489       .  S
C509       C1973   1.492       .  S
H510        O511   0.966       .  S
O511       Ni519   1.929       .  S
O511       Ni513   1.895       .  S
O511       Ni518   1.906       .  S
O512       Ni513   1.932       .  S
Ni513       O517   1.900       .  S
Ni513       O515   1.932       .  S
O514       Ni519   1.939       .  S
C516        O517   1.266       .  A
C516       C2165   1.494       .  S
O521       Ni527   1.917       .  S
O521        C542   1.269       .  A
O522       Ni545   1.899       .  S
O522        C531   1.267       .  A
O523       Ni527   1.896       .  S
O523       Ni545   1.900       .  S
O523       Ni539   1.924       .  S
O523        H546   0.966       .  S
C524        O541   1.283       .  A
C524        O533   1.281       .  A
C524       C1829   1.490       .  S
O525       Ni544   1.949       .  S
O525        C531   1.277       .  A
O526       Ni544   1.900       .  S
O526        C528   1.269       .  A
Ni527       O530   1.921       .  S
Ni527       O532   1.908       .  S
C528        O538   1.275       .  A
C528       C2102   1.489       .  S
O529       Ni545   1.930       .  S
O529        C535   1.275       .  A
O530        C535   1.277       .  A
C531       C1901   1.484       .  S
O532        C534   1.269       .  A
O533       Ni544   1.935       .  S
C534        O540   1.273       .  A
C534       C2078   1.479       .  S
C535       C1853   1.497   1_455  S
H536        O537   0.966       .  S
O537       Ni545   1.906       .  S
O537       Ni539   1.907       .  S
O537       Ni544   1.894       .  S
O538       Ni539   1.942       .  S
Ni539       O543   1.931       .  S
Ni539       O541   1.933       .  S
O540       Ni545   1.933       .  S
C542        O543   1.275       .  A
C542       C1877   1.485       .  S
O547       Ni553   1.949       .  S
O547        C568   1.277       .  A
O548       Ni571   1.920       .  S
O548        C557   1.273       .  A
O549       Ni553   1.893       .  S
O549       Ni571   1.898       .  S
O549       Ni565   1.892       .  S
O549        H572   0.966       .  S
C550        O567   1.266       .  A
C550        O559   1.270       .  A
C550       C1805   1.474       .  S
O551       Ni570   1.911       .  S
O551        C557   1.270       .  A
O552       Ni570   1.903       .  S
O552        C554   1.269       .  A
Ni553       O556   1.927       .  S
Ni553       O558   1.904       .  S
C554        O564   1.283       .  A
C554       C2006   1.501       .  S
O555       Ni571   1.929       .  S
O555        C561   1.281       .  A
O556        C561   1.281       .  A
C557       C1886   1.473       .  S
O558        C560   1.269       .  A
O559       Ni570   1.933       .  S
C560        O566   1.279       .  A
C560       C1982   1.494       .  S
C561       C1790   1.483       .  S
H562        O563   0.966       .  S
O563       Ni571   1.936       .  S
O563       Ni565   1.907       .  S
O563       Ni570   1.918       .  S
O564       Ni565   1.959       .  S
Ni565       O569   1.897       .  S
Ni565       O567   1.911       .  S
O566       Ni571   1.948       .  S
C568        O569   1.264       .  A
C568       C2261   1.499       .  S
O573       Ni579   1.914       .  S
O573        C594   1.266       .  A
O574       Ni597   1.900       .  S
O574        C583   1.267       .  A
O575       Ni579   1.895       .  S
O575       Ni597   1.897       .  S
O575       Ni591   1.917       .  S
O575        H598   0.966       .  S
C576        O593   1.279       .  A
C576        O585   1.280       .  A
C576       C2054   1.485       .  S
O577       Ni596   1.941       .  S
O577        C583   1.276       .  A
O578       Ni596   1.902       .  S
O578        C580   1.269       .  A
Ni579       O582   1.915       .  S
Ni579       O584   1.909       .  S
C580        O590   1.281       .  A
C580       C1838   1.494       .  S
O581       Ni597   1.937       .  S
O581        C587   1.279       .  A
O582        C587   1.278       .  A
C583       C1733   1.484       .  S
O584        C586   1.269       .  A
O585       Ni596   1.934       .  S
C586        O592   1.271       .  A
C586       C1862   1.493       .  S
C587       C2021   1.500   1_565  S
H588        O589   0.965       .  S
O589       Ni597   1.915       .  S
O589       Ni591   1.910       .  S
O589       Ni596   1.896       .  S
O590       Ni591   1.955       .  S
Ni591       O595   1.935       .  S
Ni591       O593   1.924       .  S
O592       Ni597   1.934       .  S
C594        O595   1.276       .  A
C594       C1757   1.488       .  S
O599       Ni605   1.948       .  S
O599        C620   1.276       .  A
O600       Ni623   1.926       .  S
O600        C609   1.271       .  A
O601       Ni605   1.899       .  S
O601       Ni623   1.909       .  S
O601       Ni617   1.910       .  S
O601        H624   0.966       .  S
C602        O619   1.276       .  A
C602        O611   1.277       .  A
C602       C1949   1.477       .  S
O603       Ni622   1.919       .  S
O603        C609   1.266       .  A
O604       Ni622   1.907       .  S
O604        C606   1.268       .  A
Ni605       O608   1.924       .  S
Ni605       O610   1.905       .  S
C606        O616   1.269       .  A
C606       C1814   1.480       .  S
O607       Ni623   1.933       .  S
O607        C613   1.281       .  A
O608        C613   1.280       .  A
C609       C1766   1.474       .  S
O610        C612   1.270       .  A
O611       Ni622   1.925       .  S
C612        O618   1.275       .  A
C612       C1781   1.479       .  S
C613       C1934   1.490       .  S
H614        O615   0.966       .  S
O615       Ni623   1.918       .  S
O615       Ni617   1.904       .  S
O615       Ni622   1.909       .  S
O616       Ni617   1.922       .  S
Ni617       O621   1.900       .  S
Ni617       O619   1.917       .  S
O618       Ni623   1.935       .  S
C620        O621   1.265       .  A
C620       C2453   1.490       .  S
O625       Ni631   1.908       .  S
O625        C646   1.266       .  A
O626       Ni649   1.897       .  S
O626        C635   1.266       .  A
O627       Ni631   1.892       .  S
O627       Ni649   1.889       .  S
O627       Ni643   1.917       .  S
O627        H650   0.966       .  S
C628        O645   1.279       .  A
C628        O637   1.283       .  A
C628       C1637   1.486       .  S
O629       Ni648   1.957       .  S
O629        C635   1.280       .  A
O630       Ni648   1.904       .  S
O630        C632   1.270       .  A
Ni631       O634   1.910       .  S
Ni631       O636   1.912       .  S
C632        O642   1.279       .  A
C632       C1694   1.491       .  S
O633       Ni649   1.940       .  S
O633        C639   1.282       .  A
O634        C639   1.278       .  A
C635       C1910   1.480       .  S
O636        C638   1.267       .  A
O637       Ni648   1.946       .  S
C638        O644   1.270       .  A
C638       C1670   1.475       .  S
C639       C1613   1.491   1_655  S
H640        O641   0.966       .  S
O641       Ni649   1.911       .  S
O641       Ni643   1.910       .  S
O641       Ni648   1.894       .  S
O642       Ni643   1.954       .  S
Ni643       O647   1.933       .  S
Ni643       O645   1.919       .  S
O644       Ni649   1.930       .  S
C646        O647   1.274       .  A
C646       C1709   1.490       .  S
O651       Ni657   1.947       .  S
O651        C672   1.275       .  A
O652       Ni675   1.916       .  S
O652        C661   1.272       .  A
O653       Ni657   1.897       .  S
O653       Ni675   1.899       .  S
O653       Ni669   1.900       .  S
O653        H676   0.965       .  S
C654        O671   1.267       .  A
C654        O663   1.272       .  A
C654       C1565   1.478       .  S
O655       Ni674   1.914       .  S
O655        C661   1.270       .  A
O656       Ni674   1.907       .  S
O656        C658   1.272       .  A
Ni657       O660   1.932       .  S
Ni657       O662   1.899       .  S
C658        O668   1.279       .  A
C658       C1526   1.498       .  S
O659       Ni675   1.930       .  S
O659        C665   1.280       .  A
O660        C665   1.281       .  A
C661       C1718   1.469       .  S
O662        C664   1.269       .  A
O663       Ni674   1.934       .  S
C664        O670   1.276       .  A
C664       C1502   1.486       .  S
C665       C1541   1.491       .  S
H666        O667   0.966       .  S
O667       Ni675   1.933       .  S
O667       Ni669   1.907       .  S
O667       Ni674   1.910       .  S
O668       Ni669   1.956       .  S
Ni669       O673   1.900       .  S
Ni669       O671   1.914       .  S
O670       Ni675   1.940       .  S
C672        O673   1.265       .  A
C672       C1598   1.480       .  S
O677       Ni683   1.903       .  S
O677        C698   1.262       .  A
O678       Ni701   1.894       .  S
O678        C687   1.263       .  A
O679       Ni683   1.905       .  S
O679       Ni701   1.898       .  S
O679       Ni695   1.921       .  S
O679        H702   0.966       .  S
C680        O697   1.279       .  A
C680        O689   1.278       .  A
C680       C1445   1.481       .  S
O681       Ni700   1.942       .  S
O681        C687   1.274       .  A
O682       Ni700   1.900       .  S
O682        C684   1.268       .  A
Ni683       O686   1.921       .  S
Ni683       O688   1.894       .  S
C684        O694   1.277       .  A
C684       C1646   1.485       .  S
O685       Ni701   1.920       .  S
O685        C691   1.276       .  A
O686        C691   1.278       .  A
C687       C2141   1.485       .  S
O688        C690   1.263       .  A
O689       Ni700   1.927       .  S
C690        O696   1.270       .  A
C690       C1622   1.472       .  S
C691       C1478   1.475       .  S
H692        O693   0.966       .  S
O693       Ni701   1.916       .  S
O693       Ni695   1.918       .  S
O693       Ni700   1.906       .  S
O694       Ni695   1.942       .  S
Ni695       O699   1.936       .  S
Ni695       O697   1.926       .  S
O696       Ni701   1.936       .  S
C698        O699   1.271       .  A
C698       C1430   1.484       .  S
O703       Ni709   1.957       .  S
O703        C724   1.277       .  A
O704       Ni727   1.932       .  S
O704        C713   1.274       .  A
O705       Ni709   1.893       .  S
O705       Ni727   1.907       .  S
O705       Ni721   1.907       .  S
O705        H728   0.966       .  S
C706        O723   1.276       .  A
C706        O715   1.280       .  A
C706       C1382   1.493       .  S
O707       Ni726   1.914       .  S
O707        C713   1.266       .  A
O708       Ni726   1.904       .  S
O708        C710   1.266       .  A
Ni709       O712   1.934       .  S
Ni709       O714   1.904       .  S
C710        O720   1.270       .  A
C710       C1574   1.485       .  S
O711       Ni727   1.923       .  S
O711        C717   1.279       .  A
O712        C717   1.282       .  A
C713       C1421   1.486       .  S
O714        C716   1.271       .  A
O715       Ni726   1.927       .  S
C716        O722   1.279       .  A
C716       C1550   1.491       .  S
C717       C1358   1.482       .  S
H718        O719   0.966       .  S
O719       Ni727   1.915       .  S
O719       Ni721   1.899       .  S
O719       Ni726   1.904       .  S
O720       Ni721   1.929       .  S
Ni721       O725   1.897       .  S
Ni721       O723   1.916       .  S
O722       Ni727   1.945       .  S
C724        O725   1.267       .  A
C724       C1397   1.505       .  S
O729       Ni735   1.918       .  S
O729        C750   1.268       .  A
O730       Ni753   1.894       .  S
O730        C739   1.263       .  A
O731       Ni735   1.907       .  S
O731       Ni753   1.902       .  S
O731       Ni747   1.916       .  S
O731        H754   0.966       .  S
C732        O749   1.279       .  A
C732        O741   1.281       .  A
C732       C1685   1.487       .  S
O733       Ni752   1.952       .  S
O733        C739   1.275       .  A
O734       Ni752   1.901       .  S
O734        C736   1.269       .  A
Ni735       O738   1.925       .  S
Ni735       O740   1.904       .  S
C736        O746   1.278       .  A
C736       C1454   1.482       .  S
O737       Ni753   1.917       .  S
O737        C743   1.274       .  A
O738        C743   1.277       .  A
C739       C1742   1.477       .  S
O740        C742   1.267       .  A
O741       Ni752   1.936       .  S
C742        O748   1.268       .  A
C742       C1469   1.474       .  S
C743       C1661   1.478   1_545  S
H744        O745   0.966       .  S
O745       Ni753   1.915       .  S
O745       Ni747   1.919       .  S
O745       Ni752   1.908       .  S
O746       Ni747   1.940       .  S
Ni747       O751   1.940       .  S
Ni747       O749   1.925       .  S
O748       Ni753   1.922       .  S
C750        O751   1.274       .  A
C750       C1334   1.505       .  S
O755       Ni761   1.943       .  S
O755        C776   1.276       .  A
O756       Ni779   1.935       .  S
O756        C765   1.275       .  A
O757       Ni761   1.901       .  S
O757       Ni779   1.917       .  S
O757       Ni773   1.919       .  S
O757        H780   0.966       .  S
C758        O775   1.277       .  A
C758        O767   1.277       .  A
C758       C1517   1.477       .  S
O759       Ni778   1.925       .  S
O759        C765   1.268       .  A
O760       Ni778   1.901       .  S
O760        C762   1.267       .  A
Ni761       O764   1.928       .  S
Ni761       O766   1.902       .  S
C762        O772   1.273       .  A
C762       C1373   1.484       .  S
O763       Ni779   1.926       .  S
O763        C769   1.278       .  A
O764        C769   1.279       .  A
C765       C1325   1.488       .  S
O766        C768   1.270       .  A
O767       Ni778   1.922       .  S
C768        O774   1.276       .  A
C768       C1349   1.478       .  S
C769       C1493   1.488       .  S
H770        O771   0.966       .  S
O771       Ni779   1.906       .  S
O771       Ni773   1.909       .  S
O771       Ni778   1.903       .  S
O772       Ni773   1.943       .  S
Ni773       O777   1.917       .  S
Ni773       O775   1.921       .  S
O774       Ni779   1.936       .  S
C776        O777   1.270       .  A
C776       C1310   1.505       .  S
O781       Ni787   1.944       .  S
O781        C802   1.274       .  A
O782       Ni805   1.920       .  S
O782        C791   1.273       .  A
O783       Ni787   1.898       .  S
O783       Ni805   1.902       .  S
O783       Ni799   1.898       .  S
O783        H806   0.965       .  S
C784        O801   1.268       .  A
C784        O793   1.273       .  A
C784       C1181   1.483       .  S
O785       Ni804   1.915       .  S
O785        C791   1.270       .  A
O786       Ni804   1.903       .  S
O786        C788   1.269       .  A
Ni787       O790   1.924       .  S
Ni787       O792   1.900       .  S
C788        O798   1.277       .  A
C788       C1229   1.496       .  S
O789       Ni805   1.932       .  S
O789        C795   1.281       .  A
O790        C795   1.280       .  A
C791       C1286   1.477       .  S
O792        C794   1.269       .  A
O793       Ni804   1.935       .  S
C794        O800   1.277       .  A
C794       C1262   1.495       .  S
C795       C1214   1.484       .  S
H796        O797   0.966       .  S
O797       Ni805   1.931       .  S
O797       Ni799   1.913       .  S
O797       Ni804   1.912       .  S
O798       Ni799   1.955       .  S
Ni799       O803   1.901       .  S
Ni799       O801   1.910       .  S
O800       Ni805   1.945       .  S
C802        O803   1.264       .  A
C802       C1589   1.478       .  S
O807       Ni813   1.901       .  S
O807        C828   1.263       .  A
O808       Ni831   1.900       .  S
O808        C817   1.267       .  A
O809       Ni813   1.889       .  S
O809       Ni831   1.890       .  S
O809       Ni825   1.920       .  S
O809        H832   0.966       .  S
C810        O827   1.281       .  A
C810        O819   1.282       .  A
C810       C1085   1.492       .  S
O811       Ni830   1.954       .  S
O811        C817   1.278       .  A
O812       Ni830   1.902       .  S
O812        C814   1.270       .  A
Ni813       O816   1.909       .  S
Ni813       O818   1.907       .  S
C814        O824   1.277       .  A
C814       C1133   1.493       .  S
O815       Ni831   1.938       .  S
O815        C821   1.281       .  A
O816        C821   1.278       .  A
C817       C2894   1.486       .  S
O818        C820   1.266       .  A
O819       Ni830   1.935       .  S
C820        O826   1.271       .  A
C820       C1157   1.481       .  S
C821       C1118   1.487       .  S
H822        O823   0.966       .  S
O823       Ni831   1.912       .  S
O823       Ni825   1.919       .  S
O823       Ni830   1.894       .  S
O824       Ni825   1.949       .  S
Ni825       O829   1.946       .  S
Ni825       O827   1.926       .  S
O826       Ni831   1.934       .  S
C828        O829   1.277       .  A
C828       C1277   1.497       .  S
O833       Ni839   1.948       .  S
O833        C854   1.276   1_455  A
O834       Ni857   1.931       .  S
O834        C843   1.272   1_455  A
O835       Ni839   1.896       .  S
O835       Ni857   1.910       .  S
O835       Ni851   1.910   1_455  S
O835        H858   0.966   1_455  S
C836        O853   1.275       .  A
C836        O845   1.277       .  A
C836       C1013   1.474       .  S
O837       Ni856   1.907       .  S
O837        C843   1.264       .  A
O838       Ni856   1.896       .  S
O838        C840   1.264       .  A
Ni839       O842   1.929       .  S
Ni839       O844   1.903       .  S
C840        O850   1.272       .  A
C840       C1190   1.483       .  S
O841       Ni857   1.931       .  S
O841        C847   1.282       .  A
O842        C847   1.281       .  A
C843       C1070   1.485   1_655  S
O844        C846   1.268       .  A
O845       Ni856   1.922       .  S
C846        O852   1.275       .  A
C846       C1205   1.478       .  S
C847       C1037   1.486       .  S
H848        O849   0.966       .  S
O849       Ni857   1.919   1_655  S
O849       Ni851   1.900       .  S
O849       Ni856   1.905       .  S
O850       Ni851   1.937       .  S
Ni851       O855   1.900       .  S
Ni851       O853   1.914       .  S
O852       Ni857   1.937       .  S
C854        O855   1.267       .  A
C854       C1301   1.490       .  S
O859       Ni865   1.912       .  S
O859        C880   1.265   1_455  A
O860       Ni883   1.894       .  S
O860        C869   1.263       .  A
O861       Ni865   1.908       .  S
O861       Ni883   1.900       .  S
O861       Ni877   1.912   1_455  S
O861        H884   0.966       .  S
C862        O879   1.276       .  A
C862        O871   1.281       .  A
C862        C974   1.473       .  S
O863       Ni882   1.951       .  S
O863        C869   1.277   1_655  A
O864       Ni882   1.906       .  S
O864        C866   1.270       .  A
Ni865       O868   1.925       .  S
Ni865       O870   1.903       .  S
C866        O876   1.275       .  A
C866       C1094   1.498       .  S
O867       Ni883   1.916       .  S
O867        C873   1.276       .  A
O868        C873   1.278       .  A
C869       C2606   1.483       .  S
O870        C872   1.264       .  A
O871       Ni882   1.934       .  S
C872        O878   1.269       .  A
C872       C1109   1.472       .  S
C873        C989   1.478       .  S
H874        O875   0.966       .  S
O875       Ni883   1.911   1_655  S
O875       Ni877   1.908       .  S
O875       Ni882   1.904       .  S
O876       Ni877   1.942       .  S
Ni877       O881   1.916       .  S
Ni877       O879   1.917       .  S
O878       Ni883   1.933       .  S
C880        O881   1.267       .  A
C880       C1061   1.476       .  S
O885       Ni891   1.959       .  S
O885        C906   1.279   1_565  A
O886       Ni909   1.925       .  S
O886        C895   1.274       .  A
O887       Ni891   1.907   1_545  S
O887       Ni909   1.909   1_545  S
O887       Ni903   1.903       .  S
O887        H910   0.966       .  S
C888        O905   1.268       .  A
C888        O897   1.271       .  A
C888       C1238   1.477       .  S
O889       Ni908   1.911       .  S
O889        C895   1.269   1_545  A
O890       Ni908   1.907       .  S
O890        C892   1.272       .  A
Ni891       O894   1.937       .  S
Ni891       O896   1.906       .  S
C892        O902   1.276       .  A
C892       C1022   1.496       .  S
O893       Ni909   1.928       .  S
O893        C899   1.279       .  A
O894        C899   1.282       .  A
C895        C941   1.477       .  S
O896        C898   1.270       .  A
O897       Ni908   1.928       .  S
C898        O904   1.275       .  A
C898       C1046   1.481       .  S
C899       C1253   1.493       .  S
H900        O901   0.966       .  S
O901       Ni909   1.929   1_545  S
O901       Ni903   1.908       .  S
O901       Ni908   1.912       .  S
O902       Ni903   1.950       .  S
Ni903       O907   1.899       .  S
Ni903       O905   1.915       .  S
O904       Ni909   1.935       .  S
C906        O907   1.263       .  A
C906       C1406   1.507       .  S
O911       Ni917   1.912       .  S
O911        C932   1.266       .  A
O912       Ni935   1.895       .  S
O912        C921   1.265       .  A
O913       Ni917   1.896       .  S
O913       Ni935   1.896       .  S
O913       Ni929   1.919   1_565  S
O913        H936   0.966       .  S
C914        O931   1.280       .  A
C914        O923   1.280       .  A
C914       C1142   1.492       .  S
O915       Ni934   1.941       .  S
O915        C921   1.274   1_545  A
O916       Ni934   1.895       .  S
O916        C918   1.268       .  A
Ni917       O920   1.918       .  S
Ni917       O922   1.900       .  S
C918        O928   1.276       .  A
C918        C965   1.481       .  S
O919       Ni935   1.928       .  S
O919        C925   1.279       .  A
O920        C925   1.277       .  A
C921       C2693   1.475       .  S
O922        C924   1.266       .  A
O923       Ni934   1.927       .  S
C924        O930   1.269       .  A
C924        C998   1.479       .  S
C925       C1166   1.483       .  S
H926        O927   0.966       .  S
O927       Ni935   1.911   1_545  S
O927       Ni929   1.910       .  S
O927       Ni934   1.896       .  S
O928       Ni929   1.940       .  S
Ni929       O933   1.930       .  S
Ni929       O931   1.929       .  S
O930       Ni935   1.928       .  S
C932        O933   1.274   1_565  A
C932        C950   1.481       .  S
C937        C938   1.400       .  A
C937        C942   1.396       .  A
C937        H947   1.084   1_565  S
C938        C943   1.487   1_554  S
C938        C939   1.417       .  A
C939        C940   1.406       .  A
C939        S944   1.803       .  S
C940        C941   1.402       .  A
C940        H945   1.084       .  S
C941        C942   1.415       .  A
C942        S946   1.805   1_565  S
C943        C948   1.410       .  A
C943        C952   1.406   1_565  A
S944        H960   1.406   1_554  S
S946        H957   1.407   1_545  S
C948        C949   1.402       .  A
C948        S953   1.808       .  S
C949        C950   1.407       .  A
C949        H954   1.083       .  S
C950        C951   1.413   1_565  A
C951        C952   1.403       .  A
C951        S955   1.802       .  S
C952        H956   1.084       .  S
S953        H958   1.407       .  S
S955        H959   1.407       .  S
C961        C962   1.400       .  A
C961        C966   1.397       .  A
C961        H971   1.084       .  S
C962        C967   1.481       .  S
C962        C963   1.412       .  A
C963        C964   1.403       .  A
C963        S968   1.803       .  S
C964        C965   1.405       .  A
C964        H969   1.084       .  S
C965        C966   1.417       .  A
C966        S970   1.805       .  S
C967        C972   1.410       .  A
C967        C976   1.402       .  A
S968        H984   1.406       .  S
S970        H981   1.407       .  S
C972        C973   1.407       .  A
C972        S977   1.805       .  S
C973        C974   1.404       .  A
C973        H978   1.083       .  S
C974        C975   1.410       .  A
C975        C976   1.398       .  A
C975        S979   1.800       .  S
C976        H980   1.084       .  S
S977        H982   1.407       .  S
S979        H983   1.405       .  S
C985        C986   1.403       .  A
C985        C990   1.403       .  A
C985        H995   1.084       .  S
C986        C991   1.476       .  S
C986        C987   1.412       .  A
C987        C988   1.394       .  A
C987        S992   1.808       .  S
C988        C989   1.404       .  A
C988        H993   1.085       .  S
C989        C990   1.414       .  A
C990        S994   1.802       .  S
C991        C996   1.408       .  A
C991       C1000   1.399       .  A
S992       H1008   1.402       .  S
S994       H1005   1.407       .  S
C996        C997   1.407       .  A
C996       S1001   1.804       .  S
C997        C998   1.407       .  A
C997       H1002   1.083       .  S
C998        C999   1.415       .  A
C999       C1000   1.394       .  A
C999       S1003   1.805       .  S
C1000      H1004   1.084       .  S
S1001      H1006   1.407       .  S
S1003      H1007   1.408       .  S
C1009      C1010   1.404       .  A
C1009      C1014   1.404       .  A
C1009      H1019   1.084       .  S
C1010      C1015   1.476       .  S
C1010      C1011   1.410       .  A
C1011      C1012   1.393       .  A
C1011      S1016   1.806       .  S
C1012      C1013   1.404       .  A
C1012      H1017   1.085       .  S
C1013      C1014   1.414       .  A
C1014      S1018   1.802       .  S
C1015      C1020   1.406       .  A
C1015      C1024   1.397       .  A
S1016      H1032   1.404       .  S
S1018      H1029   1.406       .  S
C1020      C1021   1.401       .  A
C1020      S1025   1.808       .  S
C1021      C1022   1.411       .  A
C1021      H1026   1.082       .  S
C1022      C1023   1.424       .  A
C1023      C1024   1.400       .  A
C1023      S1027   1.801       .  S
C1024      H1028   1.084       .  S
S1025      H1030   1.407       .  S
S1027      H1031   1.407       .  S
C1033      C1034   1.401       .  A
C1033      C1038   1.401       .  A
C1033      H1043   1.084       .  S
C1034      C1039   1.484       .  S
C1034      C1035   1.412       .  A
C1035      C1036   1.403       .  A
C1035      S1040   1.803       .  S
C1036      C1037   1.406       .  A
C1036      H1041   1.084       .  S
C1037      C1038   1.417       .  A
C1038      S1042   1.803       .  S
C1039      C1044   1.411       .  A
C1039      C1048   1.399       .  A
S1040      H1056   1.406       .  S
S1042      H1053   1.407       .  S
C1044      C1045   1.409       .  A
C1044      S1049   1.804       .  S
C1045      C1046   1.405       .  A
C1045      H1050   1.083       .  S
C1046      C1047   1.416       .  A
C1047      C1048   1.400       .  A
C1047      S1051   1.810       .  S
C1048      H1052   1.083       .  S
S1049      H1054   1.407       .  S
S1051      H1055   1.407       .  S
C1057      C1058   1.407       .  A
C1057      C1062   1.404       .  A
C1057      H1067   1.084       .  S
C1058      C1063   1.481   1_556  S
C1058      C1059   1.408   1_655  A
C1059      C1060   1.393       .  A
C1059      S1064   1.804       .  S
C1060      C1061   1.406   1_455  A
C1060      H1065   1.084       .  S
C1061      C1062   1.413       .  A
C1062      S1066   1.802       .  S
C1063      C1068   1.406       .  A
C1063      C1072   1.405   1_655  A
S1064      H1080   1.406   1_556  S
S1066      H1077   1.406       .  S
C1068      C1069   1.400       .  A
C1068      S1073   1.808       .  S
C1069      C1070   1.410   1_655  A
C1069      H1074   1.083       .  S
C1070      C1071   1.415       .  A
C1071      C1072   1.402       .  A
C1071      S1075   1.801       .  S
C1072      H1076   1.084       .  S
S1073      H1078   1.407       .  S
S1075      H1079   1.407       .  S
C1081      C1082   1.405       .  A
C1081      C1086   1.409       .  A
C1081      H1091   1.084       .  S
C1082      C1087   1.490       .  S
C1082      C1083   1.411       .  A
C1083      C1084   1.396       .  A
C1083      S1088   1.801       .  S
C1084      C1085   1.406       .  A
C1084      H1089   1.084       .  S
C1085      C1086   1.419       .  A
C1086      S1090   1.800       .  S
C1087      C1092   1.409       .  A
C1087      C1096   1.402       .  A
S1088      H1104   1.404       .  S
S1090      H1101   1.407       .  S
C1092      C1093   1.404       .  A
C1092      S1097   1.807       .  S
C1093      C1094   1.409       .  A
C1093      H1098   1.083       .  S
C1094      C1095   1.421       .  A
C1095      C1096   1.407       .  A
C1095      S1099   1.798       .  S
C1096      H1100   1.084       .  S
S1097      H1102   1.407       .  S
S1099      H1103   1.407       .  S
C1105      C1106   1.403       .  A
C1105      C1110   1.401       .  A
C1105      H1115   1.084       .  S
C1106      C1111   1.477       .  S
C1106      C1107   1.413       .  A
C1107      C1108   1.398       .  A
C1107      S1112   1.805       .  S
C1108      C1109   1.402       .  A
C1108      H1113   1.085       .  S
C1109      C1110   1.412       .  A
C1110      S1114   1.803       .  S
C1111      C1116   1.406       .  A
C1111      C1120   1.403       .  A
S1112      H1128   1.404       .  S
S1114      H1125   1.406       .  S
C1116      C1117   1.394       .  A
C1116      S1121   1.810       .  S
C1117      C1118   1.407       .  A
C1117      H1122   1.082       .  S
C1118      C1119   1.419       .  A
C1119      C1120   1.406       .  A
C1119      S1123   1.803       .  S
C1120      H1124   1.084       .  S
S1121      H1126   1.406       .  S
S1123      H1127   1.407       .  S
C1129      C1130   1.403       .  A
C1129      C1134   1.406       .  A
C1129      H1139   1.084       .  S
C1130      C1135   1.486       .  S
C1130      C1131   1.411       .  A
C1131      C1132   1.400       .  A
C1131      S1136   1.805       .  S
C1132      C1133   1.408       .  A
C1132      H1137   1.084       .  S
C1133      C1134   1.419       .  A
C1134      S1138   1.800       .  S
C1135      C1140   1.409       .  A
C1135      C1144   1.404       .  A
S1136      H1152   1.404       .  S
S1138      H1149   1.407       .  S
C1140      C1141   1.401       .  A
C1140      S1145   1.808       .  S
C1141      C1142   1.408       .  A
C1141      H1146   1.083       .  S
C1142      C1143   1.418       .  A
C1143      C1144   1.407       .  A
C1143      S1147   1.801       .  S
C1144      H1148   1.083       .  S
S1145      H1150   1.407       .  S
S1147      H1151   1.407       .  S
C1153      C1154   1.400       .  A
C1153      C1158   1.396       .  A
C1153      H1163   1.084       .  S
C1154      C1159   1.481       .  S
C1154      C1155   1.413       .  A
C1155      C1156   1.406       .  A
C1155      S1160   1.803       .  S
C1156      C1157   1.406       .  A
C1156      H1161   1.084       .  S
C1157      C1158   1.415       .  A
C1158      S1162   1.804       .  S
C1159      C1164   1.408       .  A
C1159      C1168   1.401       .  A
S1160      H1176   1.405       .  S
S1162      H1173   1.406       .  S
C1164      C1165   1.404       .  A
C1164      S1169   1.805       .  S
C1165      C1166   1.406       .  A
C1165      H1170   1.083       .  S
C1166      C1167   1.416       .  A
C1167      C1168   1.400       .  A
C1167      S1171   1.803       .  S
C1168      H1172   1.084       .  S
S1169      H1174   1.407       .  S
S1171      H1175   1.407       .  S
C1177      C1178   1.400       .  A
C1177      C1182   1.395       .  A
C1177      H1187   1.084       .  S
C1178      C1183   1.482       .  S
C1178      C1179   1.413       .  A
C1179      C1180   1.405       .  A
C1179      S1184   1.803       .  S
C1180      C1181   1.406       .  A
C1180      H1185   1.084       .  S
C1181      C1182   1.416       .  A
C1182      S1186   1.803       .  S
C1183      C1188   1.409       .  A
C1183      C1192   1.401       .  A
S1184      H1200   1.406       .  S
S1186      H1197   1.406       .  S
C1188      C1189   1.404       .  A
C1188      S1193   1.806       .  S
C1189      C1190   1.406       .  A
C1189      H1194   1.083       .  S
C1190      C1191   1.417       .  A
C1191      C1192   1.399       .  A
C1191      S1195   1.804       .  S
C1192      H1196   1.084       .  S
S1193      H1198   1.407       .  S
S1195      H1199   1.407       .  S
C1201      C1202   1.403       .  A
C1201      C1206   1.401       .  A
C1201      H1211   1.084       .  S
C1202      C1207   1.484       .  S
C1202      C1203   1.414       .  A
C1203      C1204   1.403       .  A
C1203      S1208   1.804       .  S
C1204      C1205   1.404       .  A
C1204      H1209   1.084       .  S
C1205      C1206   1.413       .  A
C1206      S1210   1.804       .  S
C1207      C1212   1.409       .  A
C1207      C1216   1.404       .  A
S1208      H1224   1.404       .  S
S1210      H1221   1.407       .  S
C1212      C1213   1.401       .  A
C1212      S1217   1.808       .  S
C1213      C1214   1.406       .  A
C1213      H1218   1.083       .  S
C1214      C1215   1.416       .  A
C1215      C1216   1.406       .  A
C1215      S1219   1.802       .  S
C1216      H1220   1.084       .  S
S1217      H1222   1.407       .  S
S1219      H1223   1.406       .  S
C1225      C1226   1.401       .  A
C1225      C1230   1.405       .  A
C1225      H1235   1.084       .  S
C1226      C1231   1.481       .  S
C1226      C1227   1.410       .  A
C1227      C1228   1.396       .  A
C1227      S1232   1.805       .  S
C1228      C1229   1.409       .  A
C1228      H1233   1.083       .  S
C1229      C1230   1.421       .  A
C1230      S1234   1.799       .  S
C1231      C1236   1.408       .  A
C1231      C1240   1.404       .  A
S1232      H1248   1.405       .  S
S1234      H1245   1.406       .  S
C1236      C1237   1.397       .  A
C1236      S1241   1.807       .  S
C1237      C1238   1.404       .  A
C1237      H1242   1.083       .  S
C1238      C1239   1.414       .  A
C1239      C1240   1.406       .  A
C1239      S1243   1.801       .  S
C1240      H1244   1.083       .  S
S1241      H1246   1.407       .  S
S1243      H1247   1.406       .  S
C1249      C1250   1.403       .  A
C1249      C1254   1.406       .  A
C1249      H1259   1.084       .  S
C1250      C1255   1.489       .  S
C1250      C1251   1.412       .  A
C1251      C1252   1.402       .  A
C1251      S1256   1.804       .  S
C1252      C1253   1.406       .  A
C1252      H1257   1.084       .  S
C1253      C1254   1.420       .  A
C1254      S1258   1.803       .  S
C1255      C1260   1.407       .  A
C1255      C1264   1.407       .  A
S1256      H1272   1.406       .  S
S1258      H1269   1.406       .  S
C1260      C1261   1.399       .  A
C1260      S1265   1.810       .  S
C1261      C1262   1.409       .  A
C1261      H1266   1.082       .  S
C1262      C1263   1.418       .  A
C1263      C1264   1.411       .  A
C1263      S1267   1.801       .  S
C1264      H1268   1.083       .  S
S1265      H1270   1.406       .  S
S1267      H1271   1.407       .  S
C1273      C1274   1.408       .  A
C1273      C1278   1.411       .  A
C1273      H1283   1.083       .  S
C1274      C1279   1.487   1_556  S
C1274      C1275   1.407       .  A
C1275      C1276   1.397       .  A
C1275      S1280   1.806       .  S
C1276      C1277   1.414       .  A
C1276      H1281   1.083       .  S
C1277      C1278   1.414       .  A
C1278      S1282   1.806       .  S
C1279      C1284   1.409       .  A
C1279      C1288   1.406       .  A
S1280      H1296   1.406   1_556  S
S1282      H1293   1.407       .  S
C1284      C1285   1.402       .  A
C1284      S1289   1.807       .  S
C1285      C1286   1.405       .  A
C1285      H1290   1.083       .  S
C1286      C1287   1.412       .  A
C1287      C1288   1.404       .  A
C1287      S1291   1.800       .  S
C1288      H1292   1.084       .  S
S1289      H1294   1.406       .  S
S1291      H1295   1.406       .  S
C1297      C1298   1.404       .  A
C1297      C1302   1.404       .  A
C1297      H1307   1.084       .  S
C1298      C1303   1.492       .  S
C1298      C1299   1.413       .  A
C1299      C1300   1.402       .  A
C1299      S1304   1.804       .  S
C1300      C1301   1.408       .  A
C1300      H1305   1.084       .  S
C1301      C1302   1.416       .  A
C1302      S1306   1.802   1_655  S
C1303      C1308   1.409       .  A
C1303      C1312   1.402       .  A
S1304      H1320   1.406       .  S
S1306      H1317   1.407       .  S
C1308      C1309   1.409       .  A
C1308      S1313   1.806       .  S
C1309      C1310   1.413       .  A
C1309      H1314   1.082       .  S
C1310      C1311   1.421       .  A
C1311      C1312   1.403       .  A
C1311      S1315   1.799       .  S
C1312      H1316   1.084       .  S
S1313      H1318   1.407       .  S
S1315      H1319   1.407       .  S
C1321      C1322   1.408       .  A
C1321      C1326   1.407       .  A
C1321      H1331   1.084       .  S
C1322      C1327   1.499       .  S
C1322      C1323   1.415       .  A
C1323      C1324   1.405       .  A
C1323      S1328   1.804       .  S
C1324      C1325   1.407       .  A
C1324      H1329   1.084       .  S
C1325      C1326   1.414       .  A
C1326      S1330   1.803       .  S
C1327      C1332   1.408       .  A
C1327      C1336   1.408       .  A
S1328      H1344   1.406       .  S
S1330      H1341   1.407       .  S
C1332      C1333   1.404       .  A
C1332      S1337   1.808       .  S
C1333      C1334   1.413       .  A
C1333      H1338   1.082       .  S
C1334      C1335   1.419       .  A
C1335      C1336   1.410       .  A
C1335      S1339   1.801       .  S
C1336      H1340   1.084       .  S
S1337      H1342   1.407       .  S
S1339      H1343   1.408       .  S
C1345      C1346   1.407       .  A
C1345      C1350   1.407       .  A
C1345      H1355   1.083       .  S
C1346      C1351   1.481       .  S
C1346      C1347   1.411       .  A
C1347      C1348   1.392   1_455  A
C1347      S1352   1.808       .  S
C1348      C1349   1.404       .  A
C1348      H1353   1.085       .  S
C1349      C1350   1.413   1_655  A
C1350      S1354   1.802       .  S
C1351      C1356   1.409       .  A
C1351      C1360   1.401       .  A
S1352      H1368   1.405       .  S
S1354      H1365   1.407   1_455  S
C1356      C1357   1.405       .  A
C1356      S1361   1.806       .  S
C1357      C1358   1.406       .  A
C1357      H1362   1.083       .  S
C1358      C1359   1.416       .  A
C1359      C1360   1.399       .  A
C1359      S1363   1.803       .  S
C1360      H1364   1.084       .  S
S1361      H1366   1.407       .  S
S1363      H1367   1.406       .  S
C1369      C1370   1.402       .  A
C1369      C1374   1.402       .  A
C1369      H1379   1.084       .  S
C1370      C1375   1.480       .  S
C1370      C1371   1.410       .  A
C1371      C1372   1.398       .  A
C1371      S1376   1.804       .  S
C1372      C1373   1.406       .  A
C1372      H1377   1.084       .  S
C1373      C1374   1.418       .  A
C1374      S1378   1.800       .  S
C1375      C1380   1.407       .  A
C1375      C1384   1.401       .  A
S1376      H1392   1.405       .  S
S1378      H1389   1.402       .  S
C1380      C1381   1.398       .  A
C1380      S1385   1.810       .  S
C1381      C1382   1.409       .  A
C1381      H1386   1.082       .  S
C1382      C1383   1.421       .  A
C1383      C1384   1.405       .  A
C1383      S1387   1.802       .  S
C1384      H1388   1.084       .  S
S1385      H1390   1.406       .  S
S1387      H1391   1.407       .  S
C1393      C1394   1.405       .  A
C1393      C1398   1.408       .  A
C1393      H1403   1.084       .  S
C1394      C1399   1.495       .  S
C1394      C1395   1.411       .  A
C1395      C1396   1.400       .  A
C1395      S1400   1.804       .  S
C1396      C1397   1.412       .  A
C1396      H1401   1.083       .  S
C1397      C1398   1.423       .  A
C1398      S1402   1.800       .  S
C1399      C1404   1.410       .  A
C1399      C1408   1.401       .  A
S1400      H1416   1.406       .  S
S1402      H1413   1.408       .  S
C1404      C1405   1.409       .  A
C1404      S1409   1.806   1_545  S
C1405      C1406   1.412       .  A
C1405      H1410   1.082   1_545  S
C1406      C1407   1.426       .  A
C1407      C1408   1.406       .  A
C1407      S1411   1.811       .  S
C1408      H1412   1.083       .  S
S1409      H1414   1.407       .  S
S1411      H1415   1.407       .  S
C1417      C1418   1.406       .  A
C1417      C1422   1.405       .  A
C1417      H1427   1.084       .  S
C1418      C1423   1.485       .  S
C1418      C1419   1.409       .  A
C1419      C1420   1.398       .  A
C1419      S1424   1.804       .  S
C1420      C1421   1.409       .  A
C1420      H1425   1.084       .  S
C1421      C1422   1.415       .  A
C1422      S1426   1.801       .  S
C1423      C1428   1.406       .  A
C1423      C1432   1.408       .  A
S1424      H1440   1.406       .  S
S1426      H1437   1.407       .  S
C1428      C1429   1.400       .  A
C1428      S1433   1.808       .  S
C1429      C1430   1.409       .  A
C1429      H1434   1.083       .  S
C1430      C1431   1.411       .  A
C1431      C1432   1.406       .  A
C1431      S1435   1.798       .  S
C1432      H1436   1.084       .  S
S1433      H1438   1.407       .  S
S1435      H1439   1.406       .  S
C1441      C1442   1.402       .  A
C1441      C1446   1.399       .  A
C1441      H1451   1.084       .  S
C1442      C1447   1.484       .  S
C1442      C1443   1.412       .  A
C1443      C1444   1.405       .  A
C1443      S1448   1.802       .  S
C1444      C1445   1.405       .  A
C1444      H1449   1.084       .  S
C1445      C1446   1.415       .  A
C1446      S1450   1.805       .  S
C1447      C1452   1.409       .  A
C1447      C1456   1.402       .  A
S1448      H1464   1.405       .  S
S1450      H1461   1.406       .  S
C1452      C1453   1.404       .  A
C1452      S1457   1.805       .  S
C1453      C1454   1.405       .  A
C1453      H1458   1.083       .  S
C1454      C1455   1.416       .  A
C1455      C1456   1.402       .  A
C1455      S1459   1.804       .  S
C1456      H1460   1.084       .  S
S1457      H1462   1.407       .  S
S1459      H1463   1.407       .  S
C1465      C1466   1.402       .  A
C1465      C1470   1.397   1_455  A
C1465      H1475   1.084       .  S
C1466      C1471   1.478       .  S
C1466      C1467   1.413       .  A
C1467      C1468   1.400   1_455  A
C1467      S1472   1.804       .  S
C1468      C1469   1.404       .  A
C1468      H1473   1.084       .  S
C1469      C1470   1.412       .  A
C1470      S1474   1.804       .  S
C1471      C1476   1.409       .  A
C1471      C1480   1.404       .  A
S1472      H1488   1.405       .  S
S1474      H1485   1.407       .  S
C1476      C1477   1.397       .  A
C1476      S1481   1.809       .  S
C1477      C1478   1.403       .  A
C1477      H1482   1.083       .  S
C1478      C1479   1.414       .  A
C1479      C1480   1.404       .  A
C1479      S1483   1.803       .  S
C1480      H1484   1.084       .  S
S1481      H1486   1.407       .  S
S1483      H1487   1.406       .  S
C1489      C1490   1.401       .  A
C1489      C1494   1.401   1_565  A
C1489      H1499   1.084       .  S
C1490      C1495   1.483       .  S
C1490      C1491   1.412       .  A
C1491      C1492   1.401       .  A
C1491      S1496   1.804       .  S
C1492      C1493   1.406   1_565  A
C1492      H1497   1.084   1_565  S
C1493      C1494   1.419       .  A
C1494      S1498   1.803       .  S
C1495      C1500   1.407       .  A
C1495      C1504   1.405       .  A
S1496      H1512   1.404       .  S
S1498      H1509   1.405       .  S
C1500      C1501   1.397       .  A
C1500      S1505   1.809       .  S
C1501      C1502   1.407       .  A
C1501      H1506   1.083       .  S
C1502      C1503   1.416       .  A
C1503      C1504   1.408       .  A
C1503      S1507   1.801       .  S
C1504      H1508   1.083       .  S
S1505      H1510   1.407       .  S
S1507      H1511   1.407       .  S
C1513      C1514   1.406       .  A
C1513      C1518   1.408       .  A
C1513      H1523   1.083       .  S
C1514      C1519   1.481       .  S
C1514      C1515   1.410       .  A
C1515      C1516   1.390       .  A
C1515      S1520   1.804       .  S
C1516      C1517   1.403       .  A
C1516      H1521   1.084       .  S
C1517      C1518   1.415       .  A
C1518      S1522   1.802       .  S
C1519      C1524   1.407       .  A
C1519      C1528   1.399       .  A
S1520      H1536   1.404       .  S
S1522      H1533   1.406       .  S
C1524      C1525   1.401       .  A
C1524      S1529   1.808       .  S
C1525      C1526   1.410       .  A
C1525      H1530   1.082       .  S
C1526      C1527   1.422       .  A
C1527      C1528   1.403       .  A
C1527      S1531   1.799       .  S
C1528      H1532   1.084       .  S
S1529      H1534   1.406       .  S
S1531      H1535   1.406       .  S
C1537      C1538   1.403       .  A
C1537      C1542   1.405   1_455  A
C1537      H1547   1.084       .  S
C1538      C1543   1.489       .  S
C1538      C1539   1.412       .  A
C1539      C1540   1.402       .  A
C1539      S1544   1.802       .  S
C1540      C1541   1.407   1_455  A
C1540      H1545   1.084   1_455  S
C1541      C1542   1.419       .  A
C1542      S1546   1.802       .  S
C1543      C1548   1.408       .  A
C1543      C1552   1.407       .  A
S1544      H1560   1.404       .  S
S1546      H1557   1.407       .  S
C1548      C1549   1.399   1_565  A
C1548      S1553   1.810       .  S
C1549      C1550   1.408       .  A
C1549      H1554   1.083       .  S
C1550      C1551   1.416   1_545  A
C1551      C1552   1.410       .  A
C1551      S1555   1.801       .  S
C1552      H1556   1.083       .  S
S1553      H1558   1.407       .  S
S1555      H1559   1.407   1_565  S
C1561      C1562   1.401       .  A
C1561      C1566   1.393       .  A
C1561      H1571   1.084       .  S
C1562      C1567   1.483       .  S
C1562      C1563   1.414       .  A
C1563      C1564   1.406       .  A
C1563      S1568   1.803       .  S
C1564      C1565   1.405       .  A
C1564      H1569   1.084       .  S
C1565      C1566   1.413       .  A
C1566      S1570   1.802       .  S
C1567      C1572   1.410       .  A
C1567      C1576   1.402       .  A
S1568      H1584   1.406       .  S
S1570      H1581   1.406       .  S
C1572      C1573   1.403       .  A
C1572      S1577   1.806       .  S
C1573      C1574   1.406       .  A
C1573      H1578   1.083       .  S
C1574      C1575   1.417       .  A
C1575      C1576   1.400       .  A
C1575      S1579   1.804       .  S
C1576      H1580   1.084       .  S
S1577      H1582   1.407       .  S
S1579      H1583   1.408       .  S
C1585      C1586   1.405       .  A
C1585      C1590   1.401       .  A
C1585      H1595   1.084       .  S
C1586      C1591   1.490       .  S
C1586      C1587   1.415       .  A
C1587      C1588   1.401       .  A
C1587      S1592   1.805       .  S
C1588      C1589   1.404       .  A
C1588      H1593   1.084       .  S
C1589      C1590   1.412       .  A
C1590      S1594   1.802       .  S
C1591      C1596   1.413       .  A
C1591      C1600   1.404       .  A
S1592      H1608   1.406       .  S
S1594      H1605   1.406       .  S
C1596      C1597   1.406       .  A
C1596      S1601   1.807       .  S
C1597      C1598   1.405       .  A
C1597      H1602   1.083       .  S
C1598      C1599   1.413       .  A
C1599      C1600   1.400       .  A
C1599      S1603   1.802       .  S
C1600      H1604   1.084       .  S
S1601      H1606   1.407       .  S
S1603      H1607   1.406       .  S
C1609      C1610   1.403       .  A
C1609      C1614   1.405       .  A
C1609      H1619   1.084       .  S
C1610      C1615   1.480       .  S
C1610      C1611   1.410       .  A
C1611      C1612   1.394       .  A
C1611      S1616   1.806       .  S
C1612      C1613   1.408       .  A
C1612      H1617   1.083       .  S
C1613      C1614   1.418       .  A
C1614      S1618   1.800       .  S
C1615      C1620   1.411       .  A
C1615      C1624   1.401       .  A
S1616      H1632   1.404       .  S
S1618      H1629   1.407       .  S
C1620      C1621   1.405   1_565  A
C1620      S1625   1.806       .  S
C1621      C1622   1.403       .  A
C1621      H1626   1.083       .  S
C1622      C1623   1.412       .  A
C1623      C1624   1.399   1_545  A
C1623      S1627   1.804       .  S
C1624      H1628   1.084       .  S
S1625      H1630   1.407   1_565  S
S1627      H1631   1.407       .  S
C1633      C1634   1.402       .  A
C1633      C1638   1.399       .  A
C1633      H1643   1.084       .  S
C1634      C1639   1.486       .  S
C1634      C1635   1.413       .  A
C1635      C1636   1.406       .  A
C1635      S1640   1.803       .  S
C1636      C1637   1.407       .  A
C1636      H1641   1.084       .  S
C1637      C1638   1.416       .  A
C1638      S1642   1.803       .  S
C1639      C1644   1.410       .  A
C1639      C1648   1.402       .  A
S1640      H1656   1.405       .  S
S1642      H1653   1.402       .  S
C1644      C1645   1.406       .  A
C1644      S1649   1.805       .  S
C1645      C1646   1.405       .  A
C1645      H1650   1.083       .  S
C1646      C1647   1.417       .  A
C1647      C1648   1.402       .  A
C1647      S1651   1.805       .  S
C1648      H1652   1.084       .  S
S1649      H1654   1.407       .  S
S1651      H1655   1.407       .  S
C1657      C1658   1.404       .  A
C1657      C1662   1.399       .  A
C1657      H1667   1.084       .  S
C1658      C1663   1.486       .  S
C1658      C1659   1.414       .  A
C1659      C1660   1.402       .  A
C1659      S1664   1.804       .  S
C1660      C1661   1.405       .  A
C1660      H1665   1.084   1_565  S
C1661      C1662   1.411       .  A
C1662      S1666   1.803       .  S
C1663      C1668   1.412       .  A
C1663      C1672   1.403       .  A
S1664      H1680   1.406       .  S
S1666      H1677   1.407       .  S
C1668      C1669   1.407       .  A
C1668      S1673   1.806       .  S
C1669      C1670   1.403       .  A
C1669      H1674   1.083       .  S
C1670      C1671   1.412       .  A
C1671      C1672   1.397       .  A
C1671      S1675   1.803       .  S
C1672      H1676   1.084       .  S
S1673      H1678   1.407       .  S
S1675      H1679   1.406       .  S
C1681      C1682   1.402       .  A
C1681      C1686   1.399       .  A
C1681      H1691   1.084       .  S
C1682      C1687   1.489       .  S
C1682      C1683   1.415       .  A
C1683      C1684   1.407       .  A
C1683      S1688   1.803       .  S
C1684      C1685   1.407       .  A
C1684      H1689   1.084       .  S
C1685      C1686   1.416       .  A
C1686      S1690   1.803       .  S
C1687      C1692   1.412       .  A
C1687      C1696   1.400       .  A
S1688      H1704   1.405       .  S
S1690      H1701   1.405       .  S
C1692      C1693   1.410       .  A
C1692      S1697   1.805       .  S
C1693      C1694   1.407       .  A
C1693      H1698   1.083       .  S
C1694      C1695   1.416       .  A
C1695      C1696   1.401       .  A
C1695      S1699   1.798       .  S
C1696      H1700   1.084       .  S
S1697      H1702   1.407       .  S
S1699      H1703   1.407       .  S
C1705      C1706   1.405       .  A
C1705      C1710   1.404       .  A
C1705      H1715   1.084       .  S
C1706      C1711   1.484       .  S
C1706      C1707   1.409       .  A
C1707      C1708   1.397       .  A
C1707      S1712   1.805       .  S
C1708      C1709   1.410       .  A
C1708      H1713   1.084       .  S
C1709      C1710   1.416       .  A
C1710      S1714   1.799       .  S
C1711      C1716   1.413       .  A
C1711      C1720   1.401       .  A
S1712      H1728   1.406       .  S
S1714      H1725   1.407       .  S
C1716      C1717   1.406       .  A
C1716      S1721   1.806       .  S
C1717      C1718   1.402       .  A
C1717      H1722   1.083       .  S
C1718      C1719   1.411       .  A
C1719      C1720   1.397       .  A
C1719      S1723   1.804       .  S
C1720      H1724   1.084       .  S
S1721      H1726   1.407       .  S
S1723      H1727   1.407       .  S
C1729      C1730   1.403       .  A
C1729      C1734   1.402       .  A
C1729      H1739   1.084       .  S
C1730      C1735   1.480   1_565  S
C1730      C1731   1.411       .  A
C1731      C1732   1.398       .  A
C1731      S1736   1.805       .  S
C1732      C1733   1.406       .  A
C1732      H1737   1.084       .  S
C1733      C1734   1.417       .  A
C1734      S1738   1.803       .  S
C1735      C1740   1.410       .  A
C1735      C1744   1.399   1_545  A
S1736      H1752   1.404   1_565  S
S1738      H1749   1.407       .  S
C1740      C1741   1.408       .  A
C1740      S1745   1.806       .  S
C1741      C1742   1.404       .  A
C1741      H1746   1.083       .  S
C1742      C1743   1.416       .  A
C1743      C1744   1.398   1_545  A
C1743      S1747   1.803   1_545  S
C1744      H1748   1.084       .  S
S1745      H1750   1.406       .  S
S1747      H1751   1.405   1_565  S
C1753      C1754   1.401       .  A
C1753      C1758   1.403       .  A
C1753      H1763   1.083       .  S
C1754      C1759   1.490       .  S
C1754      C1755   1.416       .  A
C1755      C1756   1.404       .  A
C1755      S1760   1.803       .  S
C1756      C1757   1.403       .  A
C1756      H1761   1.084       .  S
C1757      C1758   1.419       .  A
C1758      S1762   1.809       .  S
C1759      C1764   1.412       .  A
C1759      C1768   1.406       .  A
S1760      H1776   1.406       .  S
S1762      H1773   1.407       .  S
C1764      C1765   1.405       .  A
C1764      S1769   1.807       .  S
C1765      C1766   1.404       .  A
C1765      H1770   1.083       .  S
C1766      C1767   1.409       .  A
C1767      C1768   1.402       .  A
C1767      S1771   1.802       .  S
C1768      H1772   1.084       .  S
S1769      H1774   1.407       .  S
S1771      H1775   1.406       .  S
C1777      C1778   1.407       .  A
C1777      C1782   1.407       .  A
C1777      H1787   1.084       .  S
C1778      C1783   1.484       .  S
C1778      C1779   1.412       .  A
C1779      C1780   1.395       .  A
C1779      S1784   1.806       .  S
C1780      C1781   1.404       .  A
C1780      H1785   1.085       .  S
C1781      C1782   1.413       .  A
C1782      S1786   1.802       .  S
C1783      C1788   1.409       .  A
C1783      C1792   1.403       .  A
S1784      H1800   1.406       .  S
S1786      H1797   1.407       .  S
C1788      C1789   1.403       .  A
C1788      S1793   1.806       .  S
C1789      C1790   1.406   1_655  A
C1789      H1794   1.083   1_655  S
C1790      C1791   1.417       .  A
C1791      C1792   1.402   1_455  A
C1791      S1795   1.803       .  S
C1792      H1796   1.084       .  S
S1793      H1798   1.407       .  S
S1795      H1799   1.404       .  S
C1801      C1802   1.402       .  A
C1801      C1806   1.395       .  A
C1801      H1811   1.084       .  S
C1802      C1807   1.483       .  S
C1802      C1803   1.415       .  A
C1803      C1804   1.402       .  A
C1803      S1808   1.803       .  S
C1804      C1805   1.402       .  A
C1804      H1809   1.084       .  S
C1805      C1806   1.413       .  A
C1806      S1810   1.803       .  S
C1807      C1812   1.410       .  A
C1807      C1816   1.403       .  A
S1808      H1824   1.406       .  S
S1810      H1821   1.406       .  S
C1812      C1813   1.402       .  A
C1812      S1817   1.807       .  S
C1813      C1814   1.406       .  A
C1813      H1818   1.083       .  S
C1814      C1815   1.414       .  A
C1815      C1816   1.399       .  A
C1815      S1819   1.803       .  S
C1816      H1820   1.084       .  S
S1817      H1822   1.407       .  S
S1819      H1823   1.407       .  S
C1825      C1826   1.401       .  A
C1825      C1830   1.400       .  A
C1825      H1835   1.084       .  S
C1826      C1831   1.491       .  S
C1826      C1827   1.415       .  A
C1827      C1828   1.409       .  A
C1827      S1832   1.802       .  S
C1828      C1829   1.406       .  A
C1828      H1833   1.084       .  S
C1829      C1830   1.419       .  A
C1830      S1834   1.804       .  S
C1831      C1836   1.411       .  A
C1831      C1840   1.402       .  A
S1832      H1848   1.405       .  S
S1834      H1845   1.402       .  S
C1836      C1837   1.409       .  A
C1836      S1841   1.806       .  S
C1837      C1838   1.407       .  A
C1837      H1842   1.083       .  S
C1838      C1839   1.420       .  A
C1839      C1840   1.404       .  A
C1839      S1843   1.804       .  S
C1840      H1844   1.084       .  S
S1841      H1846   1.407       .  S
S1843      H1847   1.407       .  S
C1849      C1850   1.401       .  A
C1849      C1854   1.405       .  A
C1849      H1859   1.084       .  S
C1850      C1855   1.486       .  S
C1850      C1851   1.411       .  A
C1851      C1852   1.400       .  A
C1851      S1856   1.803       .  S
C1852      C1853   1.408       .  A
C1852      H1857   1.084       .  S
C1853      C1854   1.423       .  A
C1854      S1858   1.802   1_655  S
C1855      C1860   1.409       .  A
C1855      C1864   1.402       .  A
S1856      H1872   1.405       .  S
S1858      H1869   1.408       .  S
C1860      C1861   1.400       .  A
C1860      S1865   1.806       .  S
C1861      C1862   1.407       .  A
C1861      H1866   1.082       .  S
C1862      C1863   1.419       .  A
C1863      C1864   1.406       .  A
C1863      S1867   1.799       .  S
C1864      H1868   1.084       .  S
S1865      H1870   1.406       .  S
S1867      H1871   1.407       .  S
C1873      C1874   1.399       .  A
C1873      C1878   1.397       .  A
C1873      H1883   1.084       .  S
C1874      C1879   1.487       .  S
C1874      C1875   1.416       .  A
C1875      C1876   1.406       .  A
C1875      S1880   1.804       .  S
C1876      C1877   1.405       .  A
C1876      H1881   1.084       .  S
C1877      C1878   1.419       .  A
C1878      S1882   1.805       .  S
C1879      C1884   1.411       .  A
C1879      C1888   1.406       .  A
S1880      H1896   1.406       .  S
S1882      H1893   1.408       .  S
C1884      C1885   1.402       .  A
C1884      S1889   1.807       .  S
C1885      C1886   1.404       .  A
C1885      H1890   1.083       .  S
C1886      C1887   1.410       .  A
C1887      C1888   1.403       .  A
C1887      S1891   1.801       .  S
C1888      H1892   1.084       .  S
S1889      H1894   1.407       .  S
S1891      H1895   1.405       .  S
C1897      C1898   1.405       .  A
C1897      C1902   1.403       .  A
C1897      H1907   1.084       .  S
C1898      C1903   1.490   1_455  S
C1898      C1899   1.415       .  A
C1899      C1900   1.401       .  A
C1899      S1904   1.805   1_455  S
C1900      C1901   1.405       .  A
C1900      H1905   1.084       .  S
C1901      C1902   1.414       .  A
C1902      S1906   1.802       .  S
C1903      C1908   1.413       .  A
C1903      C1912   1.402       .  A
S1904      H1920   1.406       .  S
S1906      H1917   1.407       .  S
C1908      C1909   1.408       .  A
C1908      S1913   1.807       .  S
C1909      C1910   1.404       .  A
C1909      H1914   1.083       .  S
C1910      C1911   1.414       .  A
C1911      C1912   1.399       .  A
C1911      S1915   1.800       .  S
C1912      H1916   1.084   1_655  S
S1913      H1918   1.407       .  S
S1915      H1919   1.405       .  S
C1921      C1922   1.405       .  A
C1921      C1926   1.408       .  A
C1921      H1931   1.084       .  S
C1922      C1927   1.483       .  S
C1922      C1923   1.411       .  A
C1923      C1924   1.394   1_655  A
C1923      S1928   1.808       .  S
C1924      C1925   1.407       .  A
C1924      H1929   1.084       .  S
C1925      C1926   1.417   1_455  A
C1926      S1930   1.801       .  S
C1927      C1932   1.408       .  A
C1927      C1936   1.402       .  A
S1928      H1944   1.404       .  S
S1930      H1941   1.407   1_655  S
C1932      C1933   1.402       .  A
C1932      S1937   1.807       .  S
C1933      C1934   1.408   1_545  A
C1933      H1938   1.083   1_545  S
C1934      C1935   1.419       .  A
C1935      C1936   1.404   1_565  A
C1935      S1939   1.801       .  S
C1936      H1940   1.084       .  S
S1937      H1942   1.407       .  S
S1939      H1943   1.408       .  S
C1945      C1946   1.402       .  A
C1945      C1950   1.399       .  A
C1945      H1955   1.084       .  S
C1946      C1951   1.480       .  S
C1946      C1947   1.412       .  A
C1947      C1948   1.402       .  A
C1947      S1952   1.803       .  S
C1948      C1949   1.405       .  A
C1948      H1953   1.084       .  S
C1949      C1950   1.413       .  A
C1950      S1954   1.803       .  S
C1951      C1956   1.409       .  A
C1951      C1960   1.402       .  A
S1952      H1968   1.404       .  S
S1954      H1965   1.407       .  S
C1956      C1957   1.401       .  A
C1956      S1961   1.808       .  S
C1957      C1958   1.405       .  A
C1957      H1962   1.083       .  S
C1958      C1959   1.415       .  A
C1959      C1960   1.403       .  A
C1959      S1963   1.799       .  S
C1960      H1964   1.084       .  S
S1961      H1966   1.407       .  S
S1963      H1967   1.407       .  S
C1969      C1970   1.402       .  A
C1969      C1974   1.403       .  A
C1969      H1979   1.084       .  S
C1970      C1975   1.491       .  S
C1970      C1971   1.415       .  A
C1971      C1972   1.407       .  A
C1971      S1976   1.804       .  S
C1972      C1973   1.407       .  A
C1972      H1977   1.084       .  S
C1973      C1974   1.418       .  A
C1974      S1978   1.804       .  S
C1975      C1980   1.412       .  A
C1975      C1984   1.397       .  A
S1976      H1992   1.405       .  S
S1978      H1989   1.407       .  S
C1980      C1981   1.414       .  A
C1980      S1985   1.803       .  S
C1981      C1982   1.407   1_545  A
C1981      H1986   1.082       .  S
C1982      C1983   1.422       .  A
C1983      C1984   1.401   1_565  A
C1983      S1987   1.812       .  S
C1984      H1988   1.083       .  S
S1985      H1990   1.407       .  S
S1987      H1991   1.407       .  S
C1993      C1994   1.404       .  A
C1993      C1998   1.397       .  A
C1993      H2003   1.084       .  S
C1994      C1999   1.493       .  S
C1994      C1995   1.417       .  A
C1995      C1996   1.406       .  A
C1995      S2000   1.803       .  S
C1996      C1997   1.405       .  A
C1996      H2001   1.084       .  S
C1997      C1998   1.412       .  A
C1998      S2002   1.802       .  S
C1999      C2004   1.411       .  A
C1999      C2008   1.403       .  A
S2000      H2016   1.406       .  S
S2002      H2013   1.402       .  S
C2004      C2005   1.405       .  A
C2004      S2009   1.807       .  S
C2005      C2006   1.410       .  A
C2005      H2010   1.082       .  S
C2006      C2007   1.423       .  A
C2007      C2008   1.402       .  A
C2007      S2011   1.803       .  S
C2008      H2012   1.084       .  S
S2009      H2014   1.407       .  S
S2011      H2015   1.408       .  S
C2017      C2018   1.403       .  A
C2017      C2022   1.406       .  A
C2017      H2027   1.084       .  S
C2018      C2023   1.485       .  S
C2018      C2019   1.410       .  A
C2019      C2020   1.396       .  A
C2019      S2024   1.806       .  S
C2020      C2021   1.411       .  A
C2020      H2025   1.083       .  S
C2021      C2022   1.422       .  A
C2022      S2026   1.802       .  S
C2023      C2028   1.413       .  A
C2023      C2032   1.403       .  A
S2024      H2040   1.406       .  S
S2026      H2037   1.408       .  S
C2028      C2029   1.405   1_655  A
C2028      S2033   1.806       .  S
C2029      C2030   1.402       .  A
C2029      H2034   1.083       .  S
C2030      C2031   1.412       .  A
C2031      C2032   1.399   1_455  A
C2031      S2035   1.805       .  S
C2032      H2036   1.084       .  S
S2033      H2038   1.407   1_655  S
S2035      H2039   1.406       .  S
C2041      C2042   1.402       .  A
C2041      C2046   1.402       .  A
C2041      H2051   1.084       .  S
C2042      C2047   1.487       .  S
C2042      C2043   1.414       .  A
C2043      C2044   1.403       .  A
C2043      S2048   1.803       .  S
C2044      C2045   1.405       .  A
C2044      H2049   1.084       .  S
C2045      C2046   1.417       .  A
C2046      S2050   1.805       .  S
C2047      C2052   1.411       .  A
C2047      C2056   1.401       .  A
S2048      H2064   1.406       .  S
S2050      H2061   1.407       .  S
C2052      C2053   1.410       .  A
C2052      S2057   1.805       .  S
C2053      C2054   1.406       .  A
C2053      H2058   1.083       .  S
C2054      C2055   1.417       .  A
C2055      C2056   1.398       .  A
C2055      S2059   1.803       .  S
C2056      H2060   1.084       .  S
S2057      H2062   1.407       .  S
S2059      H2063   1.402       .  S
C2065      C2066   1.403       .  A
C2065      C2070   1.401       .  A
C2065      H2075   1.084       .  S
C2066      C2071   1.479       .  S
C2066      C2067   1.411       .  A
C2067      C2068   1.399       .  A
C2067      S2072   1.804       .  S
C2068      C2069   1.405       .  A
C2068      H2073   1.084       .  S
C2069      C2070   1.414       .  A
C2070      S2074   1.803       .  S
C2071      C2076   1.409       .  A
C2071      C2080   1.399       .  A
S2072      H2088   1.405       .  S
S2074      H2085   1.407       .  S
C2076      C2077   1.408   1_545  A
C2076      S2081   1.804       .  S
C2077      C2078   1.405       .  A
C2077      H2082   1.083       .  S
C2078      C2079   1.414       .  A
C2079      C2080   1.396   1_565  A
C2079      S2083   1.801       .  S
C2080      H2084   1.084       .  S
S2081      H2086   1.407       .  S
S2083      H2087   1.404       .  S
C2089      C2090   1.403       .  A
C2089      C2094   1.404       .  A
C2089      H2099   1.084       .  S
C2090      C2095   1.483       .  S
C2090      C2091   1.413       .  A
C2091      C2092   1.397       .  A
C2091      S2096   1.806       .  S
C2092      C2093   1.406       .  A
C2092      H2097   1.084       .  S
C2093      C2094   1.417       .  A
C2094      S2098   1.802       .  S
C2095      C2100   1.407       .  A
C2095      C2104   1.402       .  A
S2096      H2112   1.404       .  S
S2098      H2109   1.407       .  S
C2100      C2101   1.402       .  A
C2100      S2105   1.806       .  S
C2101      C2102   1.408       .  A
C2101      H2106   1.083       .  S
C2102      C2103   1.419       .  A
C2103      C2104   1.404       .  A
C2103      S2107   1.801       .  S
C2104      H2108   1.084       .  S
S2105      H2110   1.407       .  S
S2107      H2111   1.407       .  S
C2113      C2114   1.407       .  A
C2113      C2118   1.404       .  A
C2113      H2123   1.084       .  S
C2114      C2119   1.483       .  S
C2114      C2115   1.409       .  A
C2115      C2116   1.397       .  A
C2115      S2120   1.804       .  S
C2116      C2117   1.406       .  A
C2116      H2121   1.084       .  S
C2117      C2118   1.411       .  A
C2118      S2122   1.800       .  S
C2119      C2124   1.411       .  A
C2119      C2128   1.402       .  A
S2120      H2136   1.406       .  S
S2122      H2133   1.405       .  S
C2124      C2125   1.405       .  A
C2124      S2129   1.806       .  S
C2125      C2126   1.402       .  A
C2125      H2130   1.083       .  S
C2126      C2127   1.414       .  A
C2127      C2128   1.400       .  A
C2127      S2131   1.804       .  S
C2128      H2132   1.084       .  S
S2129      H2134   1.407       .  S
S2131      H2135   1.405       .  S
C2137      C2138   1.401       .  A
C2137      C2142   1.400       .  A
C2137      H2147   1.084       .  S
C2138      C2143   1.479       .  S
C2138      C2139   1.411       .  A
C2139      C2140   1.400       .  A
C2139      S2144   1.805       .  S
C2140      C2141   1.407       .  A
C2140      H2145   1.084       .  S
C2141      C2142   1.418       .  A
C2142      S2146   1.803       .  S
C2143      C2148   1.410       .  A
C2143      C2152   1.399       .  A
S2144      H2160   1.405       .  S
S2146      H2157   1.407       .  S
C2148      C2149   1.405       .  A
C2148      S2153   1.806       .  S
C2149      C2150   1.404       .  A
C2149      H2154   1.083       .  S
C2150      C2151   1.415       .  A
C2151      C2152   1.398       .  A
C2151      S2155   1.801       .  S
C2152      H2156   1.084       .  S
S2153      H2158   1.407       .  S
S2155      H2159   1.406       .  S
C2161      C2162   1.402       .  A
C2161      C2166   1.402       .  A
C2161      H2171   1.084       .  S
C2162      C2167   1.487       .  S
C2162      C2163   1.411       .  A
C2163      C2164   1.401       .  A
C2163      S2168   1.804       .  S
C2164      C2165   1.409       .  A
C2164      H2169   1.083       .  S
C2165      C2166   1.420       .  A
C2166      S2170   1.803       .  S
C2167      C2172   1.409       .  A
C2167      C2176   1.404       .  A
S2168      H2184   1.406       .  S
S2170      H2181   1.408       .  S
C2172      C2173   1.403       .  A
C2172      S2177   1.808       .  S
C2173      C2174   1.409       .  A
C2173      H2178   1.082       .  S
C2174      C2175   1.415       .  A
C2175      C2176   1.402       .  A
C2175      S2179   1.802   1_455  S
C2176      H2180   1.084       .  S
S2177      H2182   1.406       .  S
S2179      H2183   1.407       .  S
C2185      C2186   1.408   1_455  A
C2185      C2190   1.406       .  A
C2185      H2195   1.084       .  S
C2186      C2191   1.484       .  S
C2186      C2187   1.409       .  A
C2187      C2188   1.396       .  A
C2187      S2192   1.806       .  S
C2188      C2189   1.410   1_655  A
C2188      H2193   1.084       .  S
C2189      C2190   1.413       .  A
C2190      S2194   1.801       .  S
C2191      C2196   1.412       .  A
C2191      C2200   1.401       .  A
S2192      H2208   1.405       .  S
S2194      H2205   1.407       .  S
C2196      C2197   1.407       .  A
C2196      S2201   1.806       .  S
C2197      C2198   1.403       .  A
C2197      H2202   1.083       .  S
C2198      C2199   1.412       .  A
C2199      C2200   1.399       .  A
C2199      S2203   1.804       .  S
C2200      H2204   1.084       .  S
S2201      H2206   1.407       .  S
S2203      H2207   1.406       .  S
C2209      C2210   1.404       .  A
C2209      C2214   1.405       .  A
C2209      H2219   1.084       .  S
C2210      C2215   1.487       .  S
C2210      C2211   1.413       .  A
C2211      C2212   1.398       .  A
C2211      S2216   1.804       .  S
C2212      C2213   1.405       .  A
C2212      H2217   1.084       .  S
C2213      C2214   1.414       .  A
C2214      S2218   1.796       .  S
C2215      C2220   1.412       .  A
C2215      C2224   1.403       .  A
S2216      H2232   1.407       .  S
S2218      H2229   1.406       .  S
C2220      C2221   1.407       .  A
C2220      S2225   1.806       .  S
C2221      C2222   1.405       .  A
C2221      H2226   1.082       .  S
C2222      C2223   1.413       .  A
C2223      C2224   1.399       .  A
C2223      S2227   1.803       .  S
C2224      H2228   1.084       .  S
S2225      H2230   1.407       .  S
S2227      H2231   1.407       .  S
C2233      C2234   1.402       .  A
C2233      C2238   1.412       .  A
C2233      H2243   1.083       .  S
C2234      C2239   1.495       .  S
C2234      C2235   1.411       .  A
C2235      C2236   1.403       .  A
C2235      S2240   1.803       .  S
C2236      C2237   1.410       .  A
C2236      H2241   1.083       .  S
C2237      C2238   1.424       .  A
C2238      S2242   1.806       .  S
C2239      C2244   1.409       .  A
C2239      C2248   1.408       .  A
S2240      H2256   1.406       .  S
S2242      H2253   1.407       .  S
C2244      C2245   1.401       .  A
C2244      S2249   1.809       .  S
C2245      C2246   1.408       .  A
C2245      H2250   1.083       .  S
C2246      C2247   1.417       .  A
C2247      C2248   1.413       .  A
C2247      S2251   1.801       .  S
C2248      H2252   1.083       .  S
S2249      H2254   1.407       .  S
S2251      H2255   1.406       .  S
C2257      C2258   1.401       .  A
C2257      C2262   1.406       .  A
C2257      H2267   1.083       .  S
C2258      C2263   1.487       .  S
C2258      C2259   1.410       .  A
C2259      C2260   1.401       .  A
C2259      S2264   1.804       .  S
C2260      C2261   1.410       .  A
C2260      H2265   1.083       .  S
C2261      C2262   1.424       .  A
C2262      S2266   1.811       .  S
C2263      C2268   1.408       .  A
C2263      C2272   1.403       .  A
S2264      H2280   1.406       .  S
S2266      H2277   1.407       .  S
C2268      C2269   1.403       .  A
C2268      S2273   1.808       .  S
C2269      C2270   1.411       .  A
C2269      H2274   1.082       .  S
C2270      C2271   1.418       .  A
C2271      C2272   1.403       .  A
C2271      S2275   1.799   1_565  S
C2272      H2276   1.084       .  S
S2273      H2278   1.407       .  S
S2275      H2279   1.408       .  S
C2281      C2282   1.404   1_565  A
C2281      C2286   1.403       .  A
C2281      H2291   1.084       .  S
C2282      C2287   1.484       .  S
C2282      C2283   1.411       .  A
C2283      C2284   1.400       .  A
C2283      S2288   1.804       .  S
C2284      C2285   1.406   1_545  A
C2284      H2289   1.084       .  S
C2285      C2286   1.414       .  A
C2286      S2290   1.802       .  S
C2287      C2292   1.414       .  A
C2287      C2296   1.399   1_545  A
S2288      H2304   1.406       .  S
S2290      H2301   1.407       .  S
C2292      C2293   1.409       .  A
C2292      S2297   1.805       .  S
C2293      C2294   1.403       .  A
C2293      H2298   1.083       .  S
C2294      C2295   1.414   1_545  A
C2295      C2296   1.396       .  A
C2295      S2299   1.805       .  S
C2296      H2300   1.084       .  S
S2297      H2302   1.407       .  S
S2299      H2303   1.407       .  S
C2305      C2306   1.403       .  A
C2305      C2310   1.407       .  A
C2305      H2315   1.084       .  S
C2306      C2311   1.488       .  S
C2306      C2307   1.411       .  A
C2307      C2308   1.396       .  A
C2307      S2312   1.801       .  S
C2308      C2309   1.407       .  A
C2308      H2313   1.084       .  S
C2309      C2310   1.419       .  A
C2310      S2314   1.801       .  S
C2311      C2316   1.408       .  A
C2311      C2320   1.402       .  A
S2312      H2328   1.403       .  S
S2314      H2325   1.407       .  S
C2316      C2317   1.403       .  A
C2316      S2321   1.808       .  S
C2317      C2318   1.410       .  A
C2317      H2322   1.082       .  S
C2318      C2319   1.421       .  A
C2319      C2320   1.406       .  A
C2319      S2323   1.800       .  S
C2320      H2324   1.084       .  S
S2321      H2326   1.406       .  S
S2323      H2327   1.407       .  S
C2329      C2330   1.399       .  A
C2329      C2334   1.394       .  A
C2329      H2339   1.085       .  S
C2330      C2335   1.478       .  S
C2330      C2331   1.412       .  A
C2331      C2332   1.406       .  A
C2331      S2336   1.803       .  S
C2332      C2333   1.406       .  A
C2332      H2337   1.084       .  S
C2333      C2334   1.416       .  A
C2334      S2338   1.803       .  S
C2335      C2340   1.408       .  A
C2335      C2344   1.400       .  A
S2336      H2352   1.404       .  S
S2338      H2349   1.402       .  S
C2340      C2341   1.404       .  A
C2340      S2345   1.805       .  S
C2341      C2342   1.408       .  A
C2341      H2346   1.083       .  S
C2342      C2343   1.417       .  A
C2343      C2344   1.398       .  A
C2343      S2347   1.804       .  S
C2344      H2348   1.084       .  S
S2345      H2350   1.407       .  S
S2347      H2351   1.408       .  S
C2353      C2354   1.404       .  A
C2353      C2358   1.403       .  A
C2353      H2363   1.084       .  S
C2354      C2359   1.488       .  S
C2354      C2355   1.414       .  A
C2355      C2356   1.403       .  A
C2355      S2360   1.803       .  S
C2356      C2357   1.405       .  A
C2356      H2361   1.084       .  S
C2357      C2358   1.415       .  A
C2358      S2362   1.802       .  S
C2359      C2364   1.408       .  A
C2359      C2368   1.405       .  A
S2360      H2376   1.403       .  S
S2362      H2373   1.407       .  S
C2364      C2365   1.403       .  A
C2364      S2369   1.808       .  S
C2365      C2366   1.408       .  A
C2365      H2370   1.083       .  S
C2366      C2367   1.418       .  A
C2367      C2368   1.408       .  A
C2367      S2371   1.801       .  S
C2368      H2372   1.084       .  S
S2369      H2374   1.407       .  S
S2371      H2375   1.407       .  S
C2377      C2378   1.400       .  A
C2377      C2382   1.398       .  A
C2377      H2387   1.084       .  S
C2378      C2383   1.482       .  S
C2378      C2379   1.412       .  A
C2379      C2380   1.405       .  A
C2379      S2384   1.803       .  S
C2380      C2381   1.407       .  A
C2380      H2385   1.084       .  S
C2381      C2382   1.418       .  A
C2382      S2386   1.804       .  S
C2383      C2388   1.410       .  A
C2383      C2392   1.398       .  A
S2384      H2400   1.407       .  S
S2386      H2397   1.407       .  S
C2388      C2389   1.410       .  A
C2388      S2393   1.803       .  S
C2389      C2390   1.408       .  A
C2389      H2394   1.083       .  S
C2390      C2391   1.416       .  A
C2391      C2392   1.395       .  A
C2391      S2395   1.800       .  S
C2392      H2396   1.084       .  S
S2393      H2398   1.407       .  S
S2395      H2399   1.405       .  S
C2401      C2402   1.403       .  A
C2401      C2406   1.397       .  A
C2401      H2411   1.084       .  S
C2402      C2407   1.481       .  S
C2402      C2403   1.412       .  A
C2403      C2404   1.402       .  A
C2403      S2408   1.804       .  S
C2404      C2405   1.405       .  A
C2404      H2409   1.084       .  S
C2405      C2406   1.414       .  A
C2406      S2410   1.804       .  S
C2407      C2412   1.407       .  A
C2407      C2416   1.401       .  A
S2408      H2424   1.405       .  S
S2410      H2421   1.406       .  S
C2412      C2413   1.400       .  A
C2412      S2417   1.808       .  S
C2413      C2414   1.408       .  A
C2413      H2418   1.083       .  S
C2414      C2415   1.420       .  A
C2415      C2416   1.402       .  A
C2415      S2419   1.799       .  S
C2416      H2420   1.084       .  S
S2417      H2422   1.407       .  S
S2419      H2423   1.403       .  S
C2425      C2426   1.402       .  A
C2425      C2430   1.399       .  A
C2425      H2435   1.084       .  S
C2426      C2431   1.479       .  S
C2426      C2427   1.413       .  A
C2427      C2428   1.397       .  A
C2427      S2432   1.804       .  S
C2428      C2429   1.402       .  A
C2428      H2433   1.084       .  S
C2429      C2430   1.413       .  A
C2430      S2434   1.800       .  S
C2431      C2436   1.407       .  A
C2431      C2440   1.402       .  A
S2432      H2448   1.406       .  S
S2434      H2445   1.405       .  S
C2436      C2437   1.395       .  A
C2436      S2441   1.811       .  S
C2437      C2438   1.411       .  A
C2437      H2442   1.081       .  S
C2438      C2439   1.422       .  A
C2439      C2440   1.403       .  A
C2439      S2443   1.800       .  S
C2440      H2444   1.084       .  S
S2441      H2446   1.406       .  S
S2443      H2447   1.405       .  S
C2449      C2450   1.405       .  A
C2449      C2454   1.403       .  A
C2449      H2459   1.084       .  S
C2450      C2455   1.493       .  S
C2450      C2451   1.415       .  A
C2451      C2452   1.403       .  A
C2451      S2456   1.805       .  S
C2452      C2453   1.407       .  A
C2452      H2457   1.084       .  S
C2453      C2454   1.417       .  A
C2454      S2458   1.802       .  S
C2455      C2460   1.415       .  A
C2455      C2464   1.403       .  A
S2456      H2472   1.406       .  S
S2458      H2469   1.407       .  S
C2460      C2461   1.408       .  A
C2460      S2465   1.807       .  S
C2461      C2462   1.403       .  A
C2461      H2466   1.083       .  S
C2462      C2463   1.414       .  A
C2463      C2464   1.401       .  A
C2463      S2467   1.805       .  S
C2464      H2468   1.084       .  S
S2465      H2470   1.407       .  S
S2467      H2471   1.404       .  S
C2473      C2474   1.402       .  A
C2473      C2478   1.400       .  A
C2473      H2483   1.084       .  S
C2474      C2479   1.488       .  S
C2474      C2475   1.414       .  A
C2475      C2476   1.408       .  A
C2475      S2480   1.802       .  S
C2476      C2477   1.406       .  A
C2476      H2481   1.084       .  S
C2477      C2478   1.414       .  A
C2478      S2482   1.799       .  S
C2479      C2484   1.410       .  A
C2479      C2488   1.401       .  A
S2480      H2496   1.406       .  S
S2482      H2493   1.404       .  S
C2484      C2485   1.409       .  A
C2484      S2489   1.805       .  S
C2485      C2486   1.407       .  A
C2485      H2490   1.083       .  S
C2486      C2487   1.418       .  A
C2487      C2488   1.401       .  A
C2487      S2491   1.805       .  S
C2488      H2492   1.084       .  S
S2489      H2494   1.407       .  S
S2491      H2495   1.407       .  S
C2497      C2498   1.403       .  A
C2497      C2502   1.402       .  A
C2497      H2507   1.084       .  S
C2498      C2503   1.478       .  S
C2498      C2499   1.413       .  A
C2499      C2500   1.396       .  A
C2499      S2504   1.805       .  S
C2500      C2501   1.402       .  A
C2500      H2505   1.084       .  S
C2501      C2502   1.413       .  A
C2502      S2506   1.802       .  S
C2503      C2508   1.408       .  A
C2503      C2512   1.400       .  A
S2504      H2520   1.405       .  S
S2506      H2517   1.406       .  S
C2508      C2509   1.400       .  A
C2508      S2513   1.806       .  S
C2509      C2510   1.405       .  A
C2509      H2514   1.083       .  S
C2510      C2511   1.420       .  A
C2511      C2512   1.403       .  A
C2511      S2515   1.808       .  S
C2512      H2516   1.083       .  S
S2513      H2518   1.407       .  S
S2515      H2519   1.407       .  S
C2521      C2522   1.402       .  A
C2521      C2526   1.404       .  A
C2521      H2531   1.084       .  S
C2522      C2527   1.487       .  S
C2522      C2523   1.413       .  A
C2523      C2524   1.402       .  A
C2523      S2528   1.804       .  S
C2524      C2525   1.407       .  A
C2524      H2529   1.084       .  S
C2525      C2526   1.419       .  A
C2526      S2530   1.800       .  S
C2527      C2532   1.408       .  A
C2527      C2536   1.404       .  A
S2528      H2544   1.405       .  S
S2530      H2541   1.405       .  S
C2532      C2533   1.401       .  A
C2532      S2537   1.808       .  S
C2533      C2534   1.409       .  A
C2533      H2538   1.082       .  S
C2534      C2535   1.419       .  A
C2535      C2536   1.408       .  A
C2535      S2539   1.801       .  S
C2536      H2540   1.083       .  S
S2537      H2542   1.407       .  S
S2539      H2543   1.407       .  S
C2545      C2546   1.404       .  A
C2545      C2550   1.401       .  A
C2545      H2555   1.084       .  S
C2546      C2551   1.486       .  S
C2546      C2547   1.412       .  A
C2547      C2548   1.400       .  A
C2547      S2552   1.803       .  S
C2548      C2549   1.407       .  A
C2548      H2553   1.084       .  S
C2549      C2550   1.417       .  A
C2550      S2554   1.803       .  S
C2551      C2556   1.412       .  A
C2551      C2560   1.404       .  A
S2552      H2568   1.406       .  S
S2554      H2565   1.407       .  S
C2556      C2557   1.407       .  A
C2556      S2561   1.805       .  S
C2557      C2558   1.403       .  A
C2557      H2562   1.083       .  S
C2558      C2559   1.411       .  A
C2559      C2560   1.398       .  A
C2559      S2563   1.804       .  S
C2560      H2564   1.084       .  S
S2561      H2566   1.407       .  S
S2563      H2567   1.406       .  S
C2569      C2570   1.408       .  A
C2569      C2574   1.407       .  A
C2569      H2579   1.084       .  S
C2570      C2575   1.487       .  S
C2570      C2571   1.409       .  A
C2571      C2572   1.397       .  A
C2571      S2576   1.805       .  S
C2572      C2573   1.409       .  A
C2572      H2577   1.084       .  S
C2573      C2574   1.413       .  A
C2574      S2578   1.798       .  S
C2575      C2580   1.407       .  A
C2575      C2584   1.405       .  A
S2576      H2592   1.405       .  S
S2578      H2589   1.407       .  S
C2580      C2581   1.403       .  A
C2580      S2585   1.807       .  S
C2581      C2582   1.410       .  A
C2581      H2586   1.083       .  S
C2582      C2583   1.417       .  A
C2583      C2584   1.405       .  A
C2583      S2587   1.799       .  S
C2584      H2588   1.084       .  S
S2585      H2590   1.407       .  S
S2587      H2591   1.407       .  S
C2593      C2594   1.403       .  A
C2593      C2598   1.400       .  A
C2593      H2603   1.084       .  S
C2594      C2599   1.488       .  S
C2594      C2595   1.415       .  A
C2595      C2596   1.405       .  A
C2595      S2600   1.804       .  S
C2596      C2597   1.404       .  A
C2596      H2601   1.084       .  S
C2597      C2598   1.413       .  A
C2598      S2602   1.802       .  S
C2599      C2604   1.412       .  A
C2599      C2608   1.403       .  A
S2600      H2616   1.406       .  S
S2602      H2613   1.406       .  S
C2604      C2605   1.405   1_455  A
C2604      S2609   1.806   1_455  S
C2605      C2606   1.405   1_655  A
C2605      H2610   1.083       .  S
C2606      C2607   1.416       .  A
C2607      C2608   1.401       .  A
C2607      S2611   1.804       .  S
C2608      H2612   1.084       .  S
S2609      H2614   1.407       .  S
S2611      H2615   1.407       .  S
C2617      C2618   1.405       .  A
C2617      C2622   1.403       .  A
C2617      H2627   1.084       .  S
C2618      C2623   1.493       .  S
C2618      C2619   1.417       .  A
C2619      C2620   1.403       .  A
C2619      S2624   1.804       .  S
C2620      C2621   1.402       .  A
C2620      H2625   1.084       .  S
C2621      C2622   1.414       .  A
C2622      S2626   1.803       .  S
C2623      C2628   1.416       .  A
C2623      C2632   1.399       .  A
S2624      H2640   1.407       .  S
S2626      H2637   1.407       .  S
C2628      C2629   1.411       .  A
C2628      S2633   1.806       .  S
C2629      C2630   1.406       .  A
C2629      H2634   1.082       .  S
C2630      C2631   1.421       .  A
C2631      C2632   1.395       .  A
C2631      S2635   1.805       .  S
C2632      H2636   1.084       .  S
S2633      H2638   1.407       .  S
S2635      H2639   1.408       .  S
C2641      C2642   1.406       .  A
C2641      C2646   1.408       .  A
C2641      H2651   1.083       .  S
C2642      C2647   1.477       .  S
C2642      C2643   1.408       .  A
C2643      C2644   1.389       .  A
C2643      S2648   1.806       .  S
C2644      C2645   1.407       .  A
C2644      H2649   1.084       .  S
C2645      C2646   1.414       .  A
C2646      S2650   1.800       .  S
C2647      C2652   1.409       .  A
C2647      C2656   1.400       .  A
S2648      H2664   1.405       .  S
S2650      H2661   1.407       .  S
C2652      C2653   1.405       .  A
C2652      S2657   1.805       .  S
C2653      C2654   1.406       .  A
C2653      H2658   1.083       .  S
C2654      C2655   1.414       .  A
C2655      C2656   1.396       .  A
C2655      S2659   1.802       .  S
C2656      H2660   1.084       .  S
S2657      H2662   1.407       .  S
S2659      H2663   1.404       .  S
C2665      C2666   1.404       .  A
C2665      C2670   1.405       .  A
C2665      H2675   1.084       .  S
C2666      C2671   1.477       .  S
C2666      C2667   1.410       .  A
C2667      C2668   1.392       .  A
C2667      S2672   1.806       .  S
C2668      C2669   1.405       .  A
C2668      H2673   1.084       .  S
C2669      C2670   1.415       .  A
C2670      S2674   1.802       .  S
C2671      C2676   1.404       .  A
C2671      C2680   1.401       .  A
S2672      H2688   1.403       .  S
S2674      H2685   1.407       .  S
C2676      C2677   1.398   1_655  A
C2676      S2681   1.807       .  S
C2677      C2678   1.410       .  A
C2677      H2682   1.082       .  S
C2678      C2679   1.422       .  A
C2679      C2680   1.403   1_455  A
C2679      S2683   1.801       .  S
C2680      H2684   1.084       .  S
S2681      H2686   1.407       .  S
S2683      H2687   1.408       .  S
C2689      C2690   1.405       .  A
C2689      C2694   1.400       .  A
C2689      H2699   1.084       .  S
C2690      C2695   1.486       .  S
C2690      C2691   1.414       .  A
C2691      C2692   1.399   1_565  A
C2691      S2696   1.804   1_565  S
C2692      C2693   1.403   1_545  A
C2692      H2697   1.084       .  S
C2693      C2694   1.412       .  A
C2694      S2698   1.803       .  S
C2695      C2700   1.412       .  A
C2695      C2704   1.403       .  A
S2696      H2712   1.406   1_545  S
S2698      H2709   1.407       .  S
C2700      C2701   1.405       .  A
C2700      S2705   1.808       .  S
C2701      C2702   1.404       .  A
C2701      H2706   1.083       .  S
C2702      C2703   1.414       .  A
C2703      C2704   1.398       .  A
C2703      S2707   1.801   1_565  S
C2704      H2708   1.084   1_565  S
S2705      H2710   1.407       .  S
S2707      H2711   1.407   1_545  S
C2713      C2714   1.403       .  A
C2713      C2718   1.403       .  A
C2713      H2723   1.084       .  S
C2714      C2719   1.484       .  S
C2714      C2715   1.412       .  A
C2715      C2716   1.400       .  A
C2715      S2720   1.804       .  S
C2716      C2717   1.407       .  A
C2716      H2721   1.084       .  S
C2717      C2718   1.416       .  A
C2718      S2722   1.802       .  S
C2719      C2724   1.411       .  A
C2719      C2728   1.401       .  A
S2720      H2736   1.406       .  S
S2722      H2733   1.407       .  S
C2724      C2725   1.409       .  A
C2724      S2729   1.804       .  S
C2725      C2726   1.405       .  A
C2725      H2730   1.083       .  S
C2726      C2727   1.413       .  A
C2727      C2728   1.396       .  A
C2727      S2731   1.802       .  S
C2728      H2732   1.084       .  S
S2729      H2734   1.407       .  S
S2731      H2735   1.403       .  S
C2737      C2738   1.403       .  A
C2737      C2742   1.404       .  A
C2737      H2747   1.084       .  S
C2738      C2743   1.492       .  S
C2738      C2739   1.415       .  A
C2739      C2740   1.404   1_655  A
C2739      S2744   1.804       .  S
C2740      C2741   1.405       .  A
C2740      H2745   1.084       .  S
C2741      C2742   1.415   1_455  A
C2742      S2746   1.800       .  S
C2743      C2748   1.412       .  A
C2743      C2752   1.402       .  A
S2744      H2760   1.406       .  S
S2746      H2757   1.407       .  S
C2748      C2749   1.411       .  A
C2748      S2753   1.805       .  S
C2749      C2750   1.408       .  A
C2749      H2754   1.083       .  S
C2750      C2751   1.418       .  A
C2751      C2752   1.400       .  A
C2751      S2755   1.803       .  S
C2752      H2756   1.084       .  S
S2753      H2758   1.407       .  S
S2755      H2759   1.403       .  S
C2761      C2762   1.407       .  A
C2761      C2766   1.403       .  A
C2761      H2771   1.084       .  S
C2762      C2767   1.490       .  S
C2762      C2763   1.414       .  A
C2763      C2764   1.400       .  A
C2763      S2768   1.804       .  S
C2764      C2765   1.401       .  A
C2764      H2769   1.084       .  S
C2765      C2766   1.411       .  A
C2766      S2770   1.804       .  S
C2767      C2772   1.414       .  A
C2767      C2776   1.401       .  A
S2768      H2784   1.407       .  S
S2770      H2781   1.406       .  S
C2772      C2773   1.408       .  A
C2772      S2777   1.806       .  S
C2773      C2774   1.404       .  A
C2773      H2778   1.083       .  S
C2774      C2775   1.418       .  A
C2775      C2776   1.397       .  A
C2775      S2779   1.805       .  S
C2776      H2780   1.084       .  S
S2777      H2782   1.407       .  S
S2779      H2783   1.408       .  S
C2785      C2786   1.398       .  A
C2785      C2790   1.401       .  A
C2785      H2795   1.084       .  S
C2786      C2791   1.478       .  S
C2786      C2787   1.409       .  A
C2787      C2788   1.396       .  A
C2787      S2792   1.804       .  S
C2788      C2789   1.408       .  A
C2788      H2793   1.083       .  S
C2789      C2790   1.423       .  A
C2790      S2794   1.798       .  S
C2791      C2796   1.408       .  A
C2791      C2800   1.402       .  A
S2792      H2808   1.406       .  S
S2794      H2805   1.407       .  S
C2796      C2797   1.396       .  A
C2796      S2801   1.809       .  S
C2797      C2798   1.406       .  A
C2797      H2802   1.083   1_545  S
C2798      C2799   1.417       .  A
C2799      C2800   1.404       .  A
C2799      S2803   1.801       .  S
C2800      H2804   1.084       .  S
S2801      H2806   1.407       .  S
S2803      H2807   1.407       .  S
C2809      C2810   1.404       .  A
C2809      C2814   1.406       .  A
C2809      H2819   1.084       .  S
C2810      C2815   1.489       .  S
C2810      C2811   1.413       .  A
C2811      C2812   1.402       .  A
C2811      S2816   1.804       .  S
C2812      C2813   1.406       .  A
C2812      H2817   1.084       .  S
C2813      C2814   1.418       .  A
C2814      S2818   1.802       .  S
C2815      C2820   1.407       .  A
C2815      C2824   1.405       .  A
S2816      H2832   1.405       .  S
S2818      H2829   1.404       .  S
C2820      C2821   1.401       .  A
C2820      S2825   1.809       .  S
C2821      C2822   1.410       .  A
C2821      H2826   1.082       .  S
C2822      C2823   1.420       .  A
C2823      C2824   1.409       .  A
C2823      S2827   1.801       .  S
C2824      H2828   1.083       .  S
S2825      H2830   1.406       .  S
S2827      H2831   1.407       .  S
C2833      C2834   1.406       .  A
C2833      C2838   1.410       .  A
C2833      H2843   1.083       .  S
C2834      C2839   1.484       .  S
C2834      C2835   1.410       .  A
C2835      C2836   1.393       .  A
C2835      S2840   1.807       .  S
C2836      C2837   1.409       .  A
C2836      H2841   1.084       .  S
C2837      C2838   1.417       .  A
C2838      S2842   1.800       .  S
C2839      C2844   1.408       .  A
C2839      C2848   1.402       .  A
S2840      H2856   1.404       .  S
S2842      H2853   1.407       .  S
C2844      C2845   1.403       .  A
C2844      S2849   1.807       .  S
C2845      C2846   1.407       .  A
C2845      H2850   1.083       .  S
C2846      C2847   1.419       .  A
C2847      C2848   1.404       .  A
C2847      S2851   1.802       .  S
C2848      H2852   1.084       .  S
S2849      H2854   1.407       .  S
S2851      H2855   1.408       .  S
C2857      C2858   1.401       .  A
C2857      C2862   1.397   1_545  A
C2857      H2867   1.084       .  S
C2858      C2863   1.478       .  S
C2858      C2859   1.410       .  A
C2859      C2860   1.399   1_545  A
C2859      S2864   1.804       .  S
C2860      C2861   1.407       .  A
C2860      H2865   1.084       .  S
C2861      C2862   1.416       .  A
C2862      S2866   1.803       .  S
C2863      C2868   1.410       .  A
C2863      C2872   1.400       .  A
S2864      H2880   1.407       .  S
S2866      H2877   1.408       .  S
C2868      C2869   1.406       .  A
C2868      S2873   1.805       .  S
C2869      C2870   1.404       .  A
C2869      H2874   1.083       .  S
C2870      C2871   1.415       .  A
C2871      C2872   1.393       .  A
C2871      S2875   1.802   1_655  S
C2872      H2876   1.084       .  S
S2873      H2878   1.407       .  S
S2875      H2879   1.404       .  S
C2881      C2882   1.405       .  A
C2881      C2886   1.402       .  A
C2881      H2891   1.084       .  S
C2882      C2887   1.496       .  S
C2882      C2883   1.418       .  A
C2883      C2884   1.405       .  A
C2883      S2888   1.804       .  S
C2884      C2885   1.404       .  A
C2884      H2889   1.084       .  S
C2885      C2886   1.416       .  A
C2886      S2890   1.804       .  S
C2887      C2892   1.415       .  A
C2887      C2896   1.405       .  A
S2888      H2904   1.406       .  S
S2890      H2901   1.407       .  S
C2892      C2893   1.407       .  A
C2892      S2897   1.807       .  S
C2893      C2894   1.405       .  A
C2893      H2898   1.083       .  S
C2894      C2895   1.414       .  A
C2895      C2896   1.403       .  A
C2895      S2899   1.803       .  S
C2896      H2900   1.084       .  S
S2897      H2902   1.407       .  S
S2899      H2903   1.407       .  S
C2905      C2906   1.402       .  A
C2905      C2910   1.396       .  A
C2905      H2915   1.084       .  S
C2906      C2911   1.484       .  S
C2906      C2907   1.416       .  A
C2907      C2908   1.404       .  A
C2907      S2912   1.804       .  S
C2908      C2909   1.403       .  A
C2908      H2913   1.084       .  S
C2909      C2910   1.409       .  A
C2910      S2914   1.804       .  S
C2911      C2916   1.414       .  A
C2911      C2920   1.398       .  A
S2912      H2928   1.405       .  S
S2914      H2925   1.407       .  S
C2916      C2917   1.410       .  A
C2916      S2921   1.805       .  S
C2917      C2918   1.404       .  A
C2917      H2922   1.083       .  S
C2918      C2919   1.416       .  A
C2919      C2920   1.395       .  A
C2919      S2923   1.804       .  S
C2920      H2924   1.084       .  S
S2921      H2926   1.407       .  S
S2923      H2927   1.407       .  S
C2929      C2930   1.403       .  A
C2929      C2934   1.399   1_655  A
C2929      H2939   1.084       .  S
C2930      C2935   1.488       .  S
C2930      C2931   1.414       .  A
C2931      C2932   1.406   1_655  A
C2931      S2936   1.803       .  S
C2932      C2933   1.406       .  A
C2932      H2937   1.084       .  S
C2933      C2934   1.416       .  A
C2934      S2938   1.804       .  S
C2935      C2940   1.410       .  A
C2935      C2944   1.402       .  A
S2936      H2952   1.405       .  S
S2938      H2949   1.405       .  S
C2940      C2941   1.406       .  A
C2940      S2945   1.806       .  S
C2941      C2942   1.406       .  A
C2941      H2946   1.083   1_545  S
C2942      C2943   1.415       .  A
C2943      C2944   1.402       .  A
C2943      S2947   1.800       .  S
C2944      H2948   1.084       .  S
S2945      H2950   1.407       .  S
S2947      H2951   1.407       .  S
C2953      C2954   1.405       .  A
C2953      C2958   1.407       .  A
C2953      H2963   1.084       .  S
C2954      C2959   1.483       .  S
C2954      C2955   1.412       .  A
C2955      C2956   1.394       .  A
C2955      S2960   1.806       .  S
C2956      C2957   1.404       .  A
C2956      H2961   1.084       .  S
C2957      C2958   1.416       .  A
C2958      S2962   1.801       .  S
C2959      C2964   1.407       .  A
C2959      C2968   1.401       .  A
S2960      H2976   1.405       .  S
S2962      H2973   1.407       .  S
C2964      C2965   1.401       .  A
C2964      S2969   1.808       .  S
C2965      C2966   1.410       .  A
C2965      H2970   1.082       .  S
C2966      C2967   1.423       .  A
C2967      C2968   1.406       .  A
C2967      S2971   1.801       .  S
C2968      H2972   1.084       .  S
S2969      H2974   1.406       .  S
S2971      H2975   1.408       .  S
C2977      C2978   1.404       .  A
C2977      C2982   1.407       .  A
C2977      H2987   1.084       .  S
C2978      C2983   1.490       .  S
C2978      C2979   1.412       .  A
C2979      C2980   1.401       .  A
C2979      S2984   1.803       .  S
C2980      C2981   1.407       .  A
C2980      H2985   1.084       .  S
C2981      C2982   1.418       .  A
C2982      S2986   1.800       .  S
C2983      C2988   1.410       .  A
C2983      C2992   1.402       .  A
S2984      H3000   1.405       .  S
S2986      H2997   1.407       .  S
C2988      C2989   1.405       .  A
C2988      S2993   1.807       .  S
C2989      C2990   1.407   1_545  A
C2989      H2994   1.082   1_545  S
C2990      C2991   1.421   1_565  A
C2991      C2992   1.407       .  A
C2991      S2995   1.803   1_545  S
C2992      H2996   1.084       .  S
S2993      H2998   1.406       .  S
S2995      H2999   1.407       .  S
C3001      C3002   1.401       .  A
C3001      C3006   1.403       .  A
C3001      H3011   1.084       .  S
C3002      C3007   1.483       .  S
C3002      C3003   1.411       .  A
C3003      C3004   1.400       .  A
C3003      S3008   1.804       .  S
C3004      C3005   1.409       .  A
C3004      H3009   1.084       .  S
C3005      C3006   1.422       .  A
C3006      S3010   1.802       .  S
C3007      C3012   1.408       .  A
C3007      C3016   1.404       .  A
S3008      H3024   1.404       .  S
S3010      H3021   1.408       .  S
C3012      C3013   1.399       .  A
C3012      S3017   1.807       .  S
C3013      C3014   1.406       .  A
C3013      H3018   1.083       .  S
C3014      C3015   1.416       .  A
C3015      C3016   1.406       .  A
C3015      S3019   1.800       .  S
C3016      H3020   1.084       .  S
S3017      H3022   1.407       .  S
S3019      H3023   1.407       .  S
C3025      C3026   1.399       .  A
C3025      C3030   1.403       .  A
C3025      H3035   1.083   1_545  S
C3026      C3031   1.491   1_545  S
C3026      C3027   1.413       .  A
C3027      C3028   1.406       .  A
C3027      S3032   1.804       .  S
C3028      C3029   1.410       .  A
C3028      H3033   1.083       .  S
C3029      C3030   1.424       .  A
C3030      S3034   1.807       .  S
C3031      C3036   1.410       .  A
C3031      C3040   1.402       .  A
S3032      H3048   1.406       .  S
S3034      H3045   1.407   1_545  S
C3036      C3037   1.405       .  A
C3036      S3041   1.808   1_565  S
C3037      C3038   1.411       .  A
C3037      H3042   1.082       .  S
C3038      C3039   1.423       .  A
C3039      C3040   1.404       .  A
C3039      S3043   1.801       .  S
C3040      H3044   1.084       .  S
S3041      H3046   1.407       .  S
S3043      H3047   1.408       .  S
C3049      C3050   1.399       .  A
C3049      C3054   1.398       .  A
C3049      H3059   1.084       .  S
C3050      C3055   1.482       .  S
C3050      C3051   1.417       .  A
C3051      C3052   1.405       .  A
C3051      S3056   1.805       .  S
C3052      C3053   1.401       .  A
C3052      H3057   1.084       .  S
C3053      C3054   1.414       .  A
C3054      S3058   1.804       .  S
C3055      C3060   1.411       .  A
C3055      C3064   1.399       .  A
S3056      H3072   1.404       .  S
S3058      H3069   1.406       .  S
C3060      C3061   1.408       .  A
C3060      S3065   1.805       .  S
C3061      C3062   1.404       .  A
C3061      H3066   1.083       .  S
C3062      C3063   1.416       .  A
C3063      C3064   1.396       .  A
C3063      S3067   1.806       .  S
C3064      H3068   1.084       .  S
S3065      H3070   1.407       .  S
S3067      H3071   1.407       .  S
C3073      C3074   1.402       .  A
C3073      C3078   1.401       .  A
C3073      H3083   1.084       .  S
C3074      C3079   1.482       .  S
C3074      C3075   1.413       .  A
C3075      C3076   1.401       .  A
C3075      S3080   1.806       .  S
C3076      C3077   1.405       .  A
C3076      H3081   1.084       .  S
C3077      C3078   1.416       .  A
C3078      S3082   1.803       .  S
C3079      C3084   1.411       .  A
C3079      C3088   1.399       .  A
S3080      H3096   1.404       .  S
S3082      H3093   1.407       .  S
C3084      C3085   1.408       .  A
C3084      S3089   1.805       .  S
C3085      C3086   1.404       .  A
C3085      H3090   1.083       .  S
C3086      C3087   1.415       .  A
C3087      C3088   1.398       .  A
C3087      S3091   1.801       .  S
C3088      H3092   1.084       .  S
S3089      H3094   1.407       .  S
S3091      H3095   1.406       .  S
C3097      C3098   1.406       .  A
C3097      C3102   1.407       .  A
C3097      H3107   1.083       .  S
C3098      C3103   1.496       .  S
C3098      C3099   1.417       .  A
C3099      C3100   1.404       .  A
C3099      S3104   1.804       .  S
C3100      C3101   1.402       .  A
C3100      H3105   1.084       .  S
C3101      C3102   1.412       .  A
C3102      S3106   1.807       .  S
C3103      C3108   1.412       .  A
C3103      C3112   1.402       .  A
S3104      H3120   1.406       .  S
S3106      H3117   1.407       .  S
C3108      C3109   1.410       .  A
C3108      S3113   1.806       .  S
C3109      C3110   1.410       .  A
C3109      H3114   1.082       .  S
C3110      C3111   1.420       .  A
C3111      C3112   1.400       .  A
C3111      S3115   1.803       .  S
C3112      H3116   1.084       .  S
S3113      H3118   1.407       .  S
S3115      H3119   1.408       .  S
C3121      C3122   1.402       .  A
C3121      C3126   1.400   1_455  A
C3121      H3131   1.084       .  S
C3122      C3127   1.483       .  S
C3122      C3123   1.412       .  A
C3123      C3124   1.400   1_455  A
C3123      S3128   1.804       .  S
C3124      C3125   1.407       .  A
C3124      H3129   1.083       .  S
C3125      C3126   1.417       .  A
C3126      S3130   1.804       .  S
C3127      C3132   1.409       .  A
C3127      C3136   1.399       .  A
S3128      H3144   1.406       .  S
S3130      H3141   1.408       .  S
C3132      C3133   1.408       .  A
C3132      S3137   1.804       .  S
C3133      C3134   1.407       .  A
C3133      H3138   1.082       .  S
C3134      C3135   1.419       .  A
C3135      C3136   1.395       .  A
C3135      S3139   1.803   1_565  S
C3136      H3140   1.084       .  S
S3137      H3142   1.407       .  S
S3139      H3143   1.403       .  S
C3145      C3146   1.398       .  A
C3145      C3150   1.403       .  A
C3145      H3155   1.083       .  S
C3146      C3151   1.477       .  S
C3146      C3147   1.408       .  A
C3147      C3148   1.400       .  A
C3147      S3152   1.804       .  S
C3148      C3149   1.409       .  A
C3148      H3153   1.083       .  S
C3149      C3150   1.426       .  A
C3150      S3154   1.812       .  S
C3151      C3156   1.406       .  A
C3151      C3160   1.400       .  A
S3152      H3168   1.405       .  S
S3154      H3165   1.407       .  S
C3156      C3157   1.401       .  A
C3156      S3161   1.807       .  S
C3157      C3158   1.409       .  A
C3157      H3162   1.082       .  S
C3158      C3159   1.420       .  A
C3159      C3160   1.400       .  A
C3159      S3163   1.800       .  S
C3160      H3164   1.084       .  S
S3161      H3166   1.407       .  S
S3163      H3167   1.408       .  S
C3169      C3170   1.403       .  A
C3169      C3174   1.405       .  A
C3169      H3179   1.084       .  S
C3170      C3175   1.488       .  S
C3170      C3171   1.411       .  A
C3171      C3172   1.400       .  A
C3171      S3176   1.803       .  S
C3172      C3173   1.408       .  A
C3172      H3177   1.084       .  S
C3173      C3174   1.420       .  A
C3174      S3178   1.800   1_455  S
C3175      C3180   1.409       .  A
C3175      C3184   1.403       .  A
S3176      H3192   1.405       .  S
S3178      H3189   1.408       .  S
C3180      C3181   1.403   1_565  A
C3180      S3185   1.807       .  S
C3181      C3182   1.407       .  A
C3181      H3186   1.083       .  S
C3182      C3183   1.419   1_545  A
C3183      C3184   1.406       .  A
C3183      S3187   1.802   1_565  S
C3184      H3188   1.084       .  S
S3185      H3190   1.407       .  S
S3187      H3191   1.407       .  S
C3193      C3194   1.401       .  A
C3193      C3198   1.395       .  A
C3193      H3203   1.084       .  S
C3194      C3199   1.481       .  S
C3194      C3195   1.413       .  A
C3195      C3196   1.406       .  A
C3195      S3200   1.803       .  S
C3196      C3197   1.405       .  A
C3196      H3201   1.084       .  S
C3197      C3198   1.414       .  A
C3198      S3202   1.804       .  S
C3199      C3204   1.409       .  A
C3199      C3208   1.402       .  A
S3200      H3216   1.405       .  S
S3202      H3213   1.404       .  S
C3204      C3205   1.402       .  A
C3204      S3209   1.806       .  S
C3205      C3206   1.406       .  A
C3205      H3210   1.083       .  S
C3206      C3207   1.416       .  A
C3207      C3208   1.401       .  A
C3207      S3211   1.803       .  S
C3208      H3212   1.084       .  S
S3209      H3214   1.407       .  S
S3211      H3215   1.407       .  S
C3217      C3218   1.406       .  A
C3217      C3222   1.404       .  A
C3217      H3227   1.084       .  S
C3218      C3223   1.479       .  S
C3218      C3219   1.408       .  A
C3219      C3220   1.395       .  A
C3219      S3224   1.804       .  S
C3220      C3221   1.407       .  A
C3220      H3225   1.084       .  S
C3221      C3222   1.413       .  A
C3222      S3226   1.800       .  S
C3223      C3228   1.405       .  A
C3223      C3232   1.407       .  A
S3224      H3240   1.406       .  S
S3226      H3237   1.407       .  S
C3228      C3229   1.399       .  A
C3228      S3233   1.807       .  S
C3229      C3230   1.406       .  A
C3229      H3234   1.083       .  S
C3230      C3231   1.409       .  A
C3231      C3232   1.408       .  A
C3231      S3235   1.806       .  S
C3232      H3236   1.083       .  S
S3233      H3238   1.407       .  S
S3235      H3239   1.407       .  S
C3241      C3242   1.404       .  A
C3241      C3246   1.406       .  A
C3241      H3251   1.084       .  S
C3242      C3247   1.494       .  S
C3242      C3243   1.413       .  A
C3243      C3244   1.404       .  A
C3243      S3248   1.804       .  S
C3244      C3245   1.410       .  A
C3244      H3249   1.083       .  S
C3245      C3246   1.421       .  A
C3246      S3250   1.802       .  S
C3247      C3252   1.411       .  A
C3247      C3256   1.406       .  A
S3248      H3264   1.405       .  S
S3250      H3261   1.407       .  S
C3252      C3253   1.406       .  A
C3252      S3257   1.807       .  S
C3253      C3254   1.407       .  A
C3253      H3258   1.082       .  S
C3254      C3255   1.415   1_655  A
C3255      C3256   1.407   1_455  A
C3255      S3259   1.802       .  S
C3256      H3260   1.084   1_655  S
S3257      H3262   1.407       .  S
S3259      H3263   1.406       .  S
C3265      C3266   1.402       .  A
C3265      C3270   1.400   1_565  A
C3265      H3275   1.084       .  S
C3266      C3271   1.482       .  S
C3266      C3267   1.412       .  A
C3267      C3268   1.401   1_565  A
C3267      S3272   1.803       .  S
C3268      C3269   1.405       .  A
C3268      H3273   1.084       .  S
C3269      C3270   1.417       .  A
C3270      S3274   1.804       .  S
C3271      C3276   1.410       .  A
C3271      C3280   1.398       .  A
S3272      H3288   1.407       .  S
S3274      H3285   1.407       .  S
C3276      C3277   1.410       .  A
C3276      S3281   1.804       .  S
C3277      C3278   1.407       .  A
C3277      H3282   1.083       .  S
C3278      C3279   1.416       .  A
C3279      C3280   1.393       .  A
C3279      S3283   1.800       .  S
C3280      H3284   1.084       .  S
S3281      H3286   1.407       .  S
S3283      H3287   1.400       .  S
C3289      C3290   1.402       .  A
C3289      C3294   1.405       .  A
C3289      H3299   1.083       .  S
C3290      C3295   1.484       .  S
C3290      C3291   1.412       .  A
C3291      C3292   1.400       .  A
C3291      S3296   1.803       .  S
C3292      C3293   1.405       .  A
C3292      H3297   1.084       .  S
C3293      C3294   1.414       .  A
C3294      S3298   1.808       .  S
C3295      C3300   1.406       .  A
C3295      C3304   1.398       .  A
S3296      H3312   1.407       .  S
S3298      H3309   1.406       .  S
C3300      C3301   1.408       .  A
C3300      S3305   1.805       .  S
C3301      C3302   1.413       .  A
C3301      H3306   1.082       .  S
C3302      C3303   1.424       .  A
C3303      C3304   1.400       .  A
C3303      S3307   1.810       .  S
C3304      H3308   1.083       .  S
S3305      H3310   1.407       .  S
S3307      H3311   1.407       .  S
C3313      C3314   1.401       .  A
C3313      C3318   1.408       .  A
C3313      H3323   1.083       .  S
C3314      C3319   1.481       .  S
C3314      C3315   1.409       .  A
C3315      C3316   1.396       .  A
C3315      S3320   1.804       .  S
C3316      C3317   1.408       .  A
C3316      H3321   1.084       .  S
C3317      C3318   1.423       .  A
C3318      S3322   1.809       .  S
C3319      C3324   1.408       .  A
C3319      C3328   1.403       .  A
S3320      H3336   1.405       .  S
S3322      H3333   1.407       .  S
C3324      C3325   1.398       .  A
C3324      S3329   1.809       .  S
C3325      C3326   1.405       .  A
C3325      H3330   1.083   1_455  S
C3326      C3327   1.417       .  A
C3327      C3328   1.406       .  A
C3327      S3331   1.802       .  S
C3328      H3332   1.084       .  S
S3329      H3334   1.407       .  S
S3331      H3335   1.407       .  S
C3337      C3338   1.403       .  A
C3337      C3342   1.403       .  A
C3337      H3347   1.083       .  S
C3338      C3343   1.485       .  S
C3338      C3339   1.414       .  A
C3339      C3340   1.404       .  A
C3339      S3344   1.804       .  S
C3340      C3341   1.404       .  A
C3340      H3345   1.084       .  S
C3341      C3342   1.413       .  A
C3342      S3346   1.809       .  S
C3343      C3348   1.409       .  A
C3343      C3352   1.402       .  A
S3344      H3360   1.405       .  S
S3346      H3357   1.407       .  S
C3348      C3349   1.405       .  A
C3348      S3353   1.806       .  S
C3349      C3350   1.406       .  A
C3349      H3354   1.083       .  S
C3350      C3351   1.417       .  A
C3351      C3352   1.405       .  A
C3351      S3355   1.809       .  S
C3352      H3356   1.083       .  S
S3353      H3358   1.407       .  S
S3355      H3359   1.407       .  S
C3361      C3362   1.401       .  A
C3361      C3366   1.400       .  A
C3361      H3371   1.084       .  S
C3362      C3367   1.476   1_655  S
C3362      C3363   1.408       .  A
C3363      C3364   1.397       .  A
C3363      S3368   1.804   1_655  S
C3364      C3365   1.408       .  A
C3364      H3369   1.084       .  S
C3365      C3366   1.417       .  A
C3366      S3370   1.802       .  S
C3367      C3372   1.406       .  A
C3367      C3376   1.397       .  A
S3368      H3384   1.406       .  S
S3370      H3381   1.407       .  S
C3372      C3373   1.403       .  A
C3372      S3377   1.806       .  S
C3373      C3374   1.410       .  A
C3373      H3378   1.082       .  S
C3374      C3375   1.425       .  A
C3375      C3376   1.397       .  A
C3375      S3379   1.800       .  S
C3376      H3380   1.084   1_455  S
S3377      H3382   1.407       .  S
S3379      H3383   1.404       .  S
C3385      C3386   1.402       .  A
C3385      C3390   1.406       .  A
C3385      H3395   1.084       .  S
C3386      C3391   1.482       .  S
C3386      C3387   1.409       .  A
C3387      C3388   1.395       .  A
C3387      S3392   1.807       .  S
C3388      C3389   1.411       .  A
C3388      H3393   1.083       .  S
C3389      C3390   1.423       .  A
C3390      S3394   1.801       .  S
C3391      C3396   1.410       .  A
C3391      C3400   1.404       .  A
S3392      H3408   1.405       .  S
S3394      H3405   1.407       .  S
C3396      C3397   1.399       .  A
C3396      S3401   1.807       .  S
C3397      C3398   1.402       .  A
C3397      H3402   1.083       .  S
C3398      C3399   1.413       .  A
C3399      C3400   1.404       .  A
C3399      S3403   1.802       .  S
C3400      H3404   1.084       .  S
S3401      H3406   1.407       .  S
S3403      H3407   1.407       .  S
C3409      C3410   1.401       .  A
C3409      C3414   1.397       .  A
C3409      H3419   1.084       .  S
C3410      C3415   1.483       .  S
C3410      C3411   1.413       .  A
C3411      C3412   1.406       .  A
C3411      S3416   1.804       .  S
C3412      C3413   1.406   1_455  A
C3412      H3417   1.084       .  S
C3413      C3414   1.417   1_655  A
C3414      S3418   1.804   1_455  S
C3415      C3420   1.409       .  A
C3415      C3424   1.401       .  A
S3416      H3432   1.404       .  S
S3418      H3429   1.401       .  S
C3420      C3421   1.404       .  A
C3420      S3425   1.806       .  S
C3421      C3422   1.406       .  A
C3421      H3426   1.083       .  S
C3422      C3423   1.417       .  A
C3423      C3424   1.401       .  A
C3423      S3427   1.804       .  S
C3424      H3428   1.084       .  S
S3425      H3430   1.407       .  S
S3427      H3431   1.407       .  S
C3433      C3434   1.402       .  A
C3433      C3438   1.395       .  A
C3433      H3443   1.084       .  S
C3434      C3439   1.481       .  S
C3434      C3435   1.414       .  A
C3435      C3436   1.403       .  A
C3435      S3440   1.803       .  S
C3436      C3437   1.402       .  A
C3436      H3441   1.084       .  S
C3437      C3438   1.410       .  A
C3438      S3442   1.802       .  S
C3439      C3444   1.409       .  A
C3439      C3448   1.401       .  A
S3440      H3456   1.406       .  S
S3442      H3453   1.406       .  S
C3444      C3445   1.402       .  A
C3444      S3449   1.807       .  S
C3445      C3446   1.408       .  A
C3445      H3450   1.082       .  S
C3446      C3447   1.417       .  A
C3447      C3448   1.398       .  A
C3447      S3451   1.803       .  S
C3448      H3452   1.084       .  S
S3449      H3454   1.407       .  S
S3451      H3455   1.407       .  S
C3457      C3458   1.402       .  A
C3457      C3462   1.401       .  A
C3457      H3467   1.084       .  S
C3458      C3463   1.488       .  S
C3458      C3459   1.412       .  A
C3459      C3460   1.405       .  A
C3459      S3464   1.802       .  S
C3460      C3461   1.407       .  A
C3460      H3465   1.084       .  S
C3461      C3462   1.418       .  A
C3462      S3466   1.803       .  S
C3463      C3468   1.411       .  A
C3463      C3472   1.401       .  A
S3464      H3480   1.406       .  S
S3466      H3477   1.406       .  S
C3468      C3469   1.408   1_565  A
C3468      S3473   1.806       .  S
C3469      C3470   1.408       .  A
C3469      H3474   1.083       .  S
C3470      C3471   1.414   1_545  A
C3471      C3472   1.401       .  A
C3471      S3475   1.802       .  S
C3472      H3476   1.084       .  S
S3473      H3478   1.407   1_565  S
S3475      H3479   1.407       .  S
C3481      C3482   1.408       .  A
C3481      C3486   1.407       .  A
C3481      H3491   1.084       .  S
C3482      C3487   1.490       .  S
C3482      C3483   1.409       .  A
C3483      C3484   1.395       .  A
C3483      S3488   1.806       .  S
C3484      C3485   1.412       .  A
C3484      H3489   1.083       .  S
C3485      C3486   1.417       .  A
C3486      S3490   1.800       .  S
C3487      C3492   1.412       .  A
C3487      C3496   1.406       .  A
S3488      H3504   1.406       .  S
S3490      H3501   1.408       .  S
C3492      C3493   1.403       .  A
C3492      S3497   1.807       .  S
C3493      C3494   1.404       .  A
C3493      H3498   1.083       .  S
C3494      C3495   1.412       .  A
C3495      C3496   1.402       .  A
C3495      S3499   1.800       .  S
C3496      H3500   1.084       .  S
S3497      H3502   1.407       .  S
S3499      H3503   1.406       .  S
C3505      C3506   1.404       .  A
C3505      C3510   1.399       .  A
C3505      H3515   1.084   1_545  S
C3506      C3511   1.489       .  S
C3506      C3507   1.417       .  A
C3507      C3508   1.403       .  A
C3507      S3512   1.805       .  S
C3508      C3509   1.402       .  A
C3508      H3513   1.084       .  S
C3509      C3510   1.411       .  A
C3510      S3514   1.804       .  S
C3511      C3516   1.413       .  A
C3511      C3520   1.403       .  A
S3512      H3528   1.406       .  S
S3514      H3525   1.406       .  S
C3516      C3517   1.404   1_545  A
C3516      S3521   1.808   1_545  S
C3517      C3518   1.405   1_565  A
C3517      H3522   1.083       .  S
C3518      C3519   1.417       .  A
C3519      C3520   1.401       .  A
C3519      S3523   1.803       .  S
C3520      H3524   1.084       .  S
S3521      H3526   1.407       .  S
S3523      H3527   1.407       .  S
