geometry optimzed in LAMMPS
_audit_creation_date              2020-12-01 
_audit_creation_method            'lammps2cif' 
_symmetry_space_group_name_H-M    'P1' 
_symmetry_Int_Tables_number       1 
_symmetry_cell_setting            triclinic 
loop_ 
_symmetry_equiv_pos_as_xyz 
  x,y,z 
_cell_length_a                    30.46931828 
_cell_length_b                    30.628686545067982 
_cell_length_c                    57.03172635998791 
_cell_angle_alpha                 89.8426580029018 
_cell_angle_beta                  89.90438692369867 
_cell_angle_gamma                 120.90628157020554 
loop_ 
_atom_site_label 
_atom_site_type_symbol 
_atom_site_fract_x 
_atom_site_fract_y 
_atom_site_fract_z 
_atom_site_charge 
O1          O  0.91651561  0.35343999  0.74858711    -0.88900
C2          C  0.97919732  0.29469317  0.70504474     0.87100
Mg3        Mg  0.85610921  0.36381377  0.73839931     1.58100
O4          O  0.04240372  0.42613005  0.71444054    -0.88600
O5          O  0.99191839  0.39730356  0.76432492    -0.76000
C6          C  0.91154894  0.45801715  0.62882657     0.92200
O7          O  0.85710984  0.26943843  0.70832403    -0.75800
O8          O  0.87265245  0.43935385  0.64258096    -0.83300
Mg9        Mg  0.90452976  0.27883872  0.74120063     1.58000
C10         C  0.11182148  0.50990715  0.65475892     0.92100
O11         O  0.94729169  0.27993736  0.77451362    -0.81600
H12         H  0.07961108  0.48792196  0.73477745    -0.06900
C13         C  0.95630942  0.37250252  0.65507397     0.87000
O14         O  0.91237928  0.44816159  0.72859913    -0.76100
O15         O  0.97292840  0.31673213  0.72171722    -0.88800
O16         O  0.11055019  0.49108666  0.67465772    -0.81600
C17         C  0.12776592  0.38056139  0.71488318     0.92200
C18         C  0.99233428  0.29318782  0.78128014     0.92100
Mg19       Mg  0.00122770  0.48248911  0.67068148     1.58000
O20         O  0.95579026  0.46994310  0.63637560    -0.81600
O21         O  0.04762912  0.49851785  0.70553461    -0.75800
O22         O  0.08287465  0.34812367  0.72088433    -0.81600
O23         O  0.83057313  0.23814492  0.76143749    -0.83400
O24         O  0.82018144  0.42606742  0.69919324    -0.81700
C25         C  0.05729732  0.47116526  0.71905846     0.86500
O26         O  0.93385850  0.45232461  0.69149320    -0.88800
O27         O  0.98856457  0.40443237  0.66943010    -0.88900
O28         O  0.91000136  0.36240291  0.65479057    -0.76000
Mg29       Mg  0.03694413  0.37386042  0.74077809     1.58000
O30         O  0.13437595  0.41232014  0.69884278    -0.83300
H31         H  0.92892872  0.39550130  0.77736651    -0.07100
O32         O  0.85924841  0.34158938  0.70389395    -0.88600
H33         H  0.81844708  0.28205756  0.68286700    -0.06900
H34         H  0.95924149  0.51436701  0.71137439    -0.07100
C35         C  0.84341495  0.29717889  0.69786482     0.86500
C36         C  0.94463191  0.38202029  0.76413202     0.87100
C37         C  0.93592502  0.47338263  0.71030924     0.87100
H38         H  0.96810310  0.35322147  0.64298412    -0.07100
O39         O  0.01034945  0.31957970  0.68850073    -0.76100
Mg40       Mg  0.86505631  0.39274405  0.67630394     1.58000
H41         H  0.95821172  0.25338530  0.70466008    -0.07100
C42         C  0.79361800  0.24614062  0.76091186     0.92100
O43         O  0.79012500  0.36910148  0.72766046    -0.83300
C44         C  0.79470671  0.40855738  0.71846903     0.92200
O45         O  0.03111226  0.32036284  0.76856995    -0.83300
Mg46       Mg  0.06087008  0.40656378  0.68199083     1.58200
O47         O  0.79734530  0.28535488  0.75137214    -0.81600
O48         O  0.07326064  0.51174977  0.64773430    -0.83300
O49         O  0.92550399  0.59556651  0.40733662    -0.88900
C50         C  0.97550065  0.71406423  0.45218077     0.87100
Mg51       Mg  0.87073770  0.51962804  0.41453254     1.58100
O52         O  0.04605684  0.65387154  0.44282145    -0.88600
O53         O  0.00145443  0.63572898  0.39183975    -0.76000
C54         C  0.91228698  0.48053659  0.52673998     0.92200
O55         O  0.85686712  0.60639740  0.44618026    -0.75800
O56         O  0.87432357  0.45630849  0.51274602    -0.83300
Mg57       Mg  0.90560919  0.65144683  0.41444557     1.58000
C58         C  0.10789531  0.63981805  0.50408042     0.92100
O59         O  0.95000127  0.69856178  0.38162086    -0.81600
H60         H  0.08659874  0.63325885  0.42282270    -0.06900
C61         C  0.95205443  0.60862578  0.50009936     0.87000
O62         O  0.93167000  0.50144437  0.42555022    -0.76100
O63         O  0.97259165  0.68782529  0.43512512    -0.88800
O64         O  0.10893161  0.65611610  0.48367002    -0.81600
C65         C  0.12662250  0.78591437  0.44643558     0.92200
C66         C  0.99463447  0.73509111  0.37622397     0.92100
Mg67       Mg  0.00373749  0.55078729  0.48557934     1.58000
O68         O  0.95600284  0.51442060  0.51885212    -0.81600
O69         O  0.05306503  0.58743773  0.45135465    -0.75800
O70         O  0.08271308  0.77307161  0.43901256    -0.81600
O71         O  0.83325022  0.61064219  0.39311039    -0.83400
O72         O  0.82001518  0.41433745  0.45614280    -0.81700
C73         C  0.06268010  0.62537473  0.43820071     0.86500
O74         O  0.93910192  0.50805260  0.46393609    -0.88800
O75         O  0.98561901  0.61233017  0.48578597    -0.88900
O76         O  0.90693908  0.56962237  0.49998477    -0.76000
Mg77       Mg  0.04030021  0.70212808  0.41718427     1.58000
O78         O  0.13090894  0.75958533  0.46249873    -0.83300
H79         H  0.94186947  0.57249668  0.37753207    -0.07100
O80         O  0.86083118  0.53687221  0.44971860    -0.88600
H81         H  0.81650349  0.55114863  0.47026953    -0.06900
H82         H  0.97530779  0.48200657  0.44448805    -0.07100
C83         C  0.84311997  0.56364924  0.45573605     0.86500
C84         C  0.95518633  0.60015851  0.39149201     0.87100
C85         C  0.94878971  0.49556598  0.44486254     0.87100
H86         H  0.96157822  0.63907085  0.51239575    -0.07100
O87         O  0.00504287  0.72050439  0.46929600    -0.76100
Mg88       Mg  0.86675067  0.49381056  0.47812121     1.58000
H89         H  0.95313253  0.73237349  0.45241415    -0.07100
C90         C  0.79922715  0.56363340  0.39216011     0.92100
O91         O  0.81619459  0.43991519  0.41990165    -0.83300
C92         C  0.80410742  0.40482372  0.43470677     0.92200
O93         O  0.03188824  0.75000115  0.39026490    -0.83300
Mg94       Mg  0.05746245  0.68735243  0.47621883     1.58200
O95         O  0.80559652  0.52901011  0.40080918    -0.81600
O96         O  0.07094518  0.59684959  0.51029572    -0.83300
O97         O  0.69399718  0.12179978  0.06806599    -0.88900
C98         C  0.76675413  0.08197204  0.11434287     0.87100
Mg99       Mg  0.67327723  0.17550602  0.07500003     1.58100
O100        O  0.63500209  0.00609491  0.10594254    -0.88600
O101        O  0.65828318  0.04511496  0.05415728    -0.76000
C102        C  0.59264202  0.13570360  0.18871373     0.92200
O103        O  0.77832751  0.19553738  0.10492051    -0.75800
O104        O  0.60957630  0.17251411  0.17381266    -0.83300
Mg105      Mg  0.77178913  0.14453660  0.07406427     1.58000
C106        C  0.55672527  0.93823055  0.16699675     0.92100
O107        O  0.76965399  0.09708141  0.04179186    -0.81600
H108        H  0.57298138  0.96293263  0.08627274    -0.06900
C109        C  0.68395736  0.09657723  0.16174611     0.87000
O110        O  0.59323495  0.11428998  0.08767985    -0.76100
O111        O  0.74270284  0.08131134  0.09672380    -0.88800
O112        O  0.57428218  0.93886991  0.14686732    -0.81600
C113        C  0.69297061  0.93208152  0.10889084     0.92200
C114        C  0.76219249  0.05256710  0.03825365     0.92100
Mg115      Mg  0.57291319  0.04293891  0.14891552     1.58000
O116        O  0.58209943  0.09113055  0.18254136    -0.81600
O117        O  0.55950693  0.99414335  0.11496903    -0.75800
O118        O  0.72332324  0.97744241  0.10323043    -0.81600
O119        O  0.80299253  0.21445682  0.05134409    -0.83400
O120        O  0.61990722  0.22537868  0.11650022    -0.81700
C121        C  0.58889998  0.98697615  0.10155880     0.86500
O122        O  0.59475545  0.10684591  0.12610215    -0.88800
O123        O  0.65053808  0.06011098  0.15046419    -0.88900
O124        O  0.69062668  0.14118694  0.15982491    -0.76000
Mg125      Mg  0.68979896  0.01198338  0.08047829     1.58000
O126        O  0.65979401  0.92373113  0.12452610    -0.83300
H127        H  0.65113203  0.10121119  0.03906464    -0.07100
O128        O  0.70244980  0.18650772  0.10979281    -0.88600
H129        H  0.76318295  0.23509963  0.12881152    -0.06900
H130        H  0.53031541  0.06971131  0.10749520    -0.07100
C131        C  0.74838485  0.20724261  0.11487333     0.86500
C132        C  0.66753194  0.09033645  0.05302840     0.87100
C133        C  0.57108381  0.09669166  0.10732272     0.87100
H134        H  0.70810029  0.09049303  0.17352304    -0.07100
O135        O  0.74400284  0.05300646  0.13187366    -0.76100
Mg136      Mg  0.65385209  0.18000145  0.13869865     1.58000
H137        H  0.80783267  0.10701793  0.11473425    -0.07100
C138        C  0.79100522  0.24858252  0.05138948     0.92100
O139        O  0.64920093  0.22933360  0.08028358    -0.83300
C140        C  0.62644677  0.24143798  0.09500279     0.92200
O141        O  0.74718632  0.02004635  0.05451844    -0.83300
Mg142      Mg  0.65757731  0.99512588  0.13916272     1.58200
O143        O  0.74944806  0.24101768  0.06047181    -0.81600
O144        O  0.55108273  0.97476378  0.17337984    -0.83300
O145        O  0.46955195  0.15032075  0.41453031    -0.88900
C146        C  0.34298733  0.08350495  0.37243898     0.87100
Mg147      Mg  0.53988173  0.20969934  0.40150091     1.58100
O148        O  0.41707146  0.02683939  0.37992916    -0.88600
O149        O  0.43980789  0.07583585  0.43057937    -0.76000
C150        C  0.56419049  0.14334877  0.29030163     0.92200
O151        O  0.44130443  0.20520481  0.37369824    -0.75800
O152        O  0.58887109  0.18243942  0.30363115    -0.83300
Mg153      Mg  0.40505672  0.15934060  0.40753326     1.58000
C154        C  0.41584599  0.94615847  0.32068598     0.92100
O155        O  0.36332453  0.11760960  0.44179134    -0.81600
H156        H  0.43435372  0.98201389  0.39944907    -0.06900
C157        C  0.43754587  0.10187563  0.31988644     0.87000
O158        O  0.56437275  0.15135789  0.39125389    -0.76100
O159        O  0.37294241  0.09078409  0.38871002    -0.88800
O160        O  0.40103625  0.94958070  0.34095789    -0.81600
C161        C  0.28063317  0.93681840  0.38495886     0.92200
C162        C  0.33187680  0.07224028  0.44857118     0.92100
Mg163      Mg  0.50393193  0.05678917  0.33431142     1.58000
O164        O  0.53248938  0.09995523  0.29909438    -0.81600
O165        O  0.47699195  0.01065761  0.36957130    -0.75800
O166        O  0.29458748  0.98210206  0.38962757    -0.81600
O167        O  0.44053122  0.23333872  0.42670762    -0.83400
O168        O  0.63443193  0.23738525  0.36076134    -0.81700
C169        C  0.44225861  0.00516738  0.38386507     0.86500
O170        O  0.54332395  0.12532151  0.35470281    -0.88800
O171        O  0.43817255  0.06941308  0.33358233    -0.88900
O172        O  0.47471886  0.14804719  0.31916399    -0.76000
Mg173      Mg  0.36876746  0.02918063  0.40820214     1.58000
O174        O  0.30216968  0.92871733  0.36787232    -0.83300
H175        H  0.50223824  0.13984886  0.44269055    -0.07100
O176        O  0.51012089  0.20144269  0.36745785    -0.88600
H177        H  0.49045972  0.24129068  0.34667458    -0.06900
H178        H  0.57980638  0.10137199  0.37537488    -0.07100
C179        C  0.48154578  0.21733452  0.36201151     0.86500
C180        C  0.47168225  0.12320768  0.42998362     0.87100
C181        C  0.56322543  0.12502868  0.37364259     0.87100
H182        H  0.40473023  0.09028599  0.30868513    -0.07100
O183        O  0.33475426  0.05179166  0.35610135    -0.76100
Mg184      Mg  0.55335565  0.19311996  0.33882425     1.58000
H185        H  0.32294673  0.10426984  0.37220105    -0.07100
C186        C  0.48551804  0.27182878  0.42541434     0.92100
O187        O  0.60998589  0.27362779  0.38675867    -0.83300
C188        C  0.64350677  0.26483667  0.37927723     0.92200
O189        O  0.32283465  0.03425274  0.43626761    -0.83300
Mg190      Mg  0.36846829  0.00007958  0.34857624     1.58200
O191        O  0.52185903  0.27029886  0.41504997    -0.81600
O192        O  0.45710491  0.98337588  0.31258773    -0.83300
O193        O  0.60792116  0.69844526  0.23614791    -0.88900
C194        C  0.72161705  0.77201184  0.28262164     0.87100
Mg195      Mg  0.53207178  0.67680554  0.24334729     1.58100
O196        O  0.65625734  0.63956945  0.27497392    -0.88600
O197        O  0.64874597  0.66422691  0.22139018    -0.76000
C198        C  0.48894004  0.60272242  0.35804292     0.92200
O199        O  0.61869331  0.78288206  0.27246162    -0.75800
O200        O  0.46759892  0.61796307  0.34329781    -0.83300
Mg201      Mg  0.66444770  0.77644802  0.24205723     1.58000
C202        C  0.64479067  0.55869993  0.33664946     0.92100
O203        O  0.71324461  0.77689554  0.21044533    -0.81600
H204        H  0.64222296  0.57641017  0.25699976    -0.06900
C205        C  0.61959791  0.69093824  0.33135182     0.87000
O206        O  0.51162598  0.59808656  0.25672561    -0.76100
O207        O  0.69837219  0.74833417  0.26479801    -0.88800
O208        O  0.66653102  0.58039098  0.31756278    -0.81600
C209        C  0.79312828  0.69546589  0.27791688     0.92200
C210        C  0.75058530  0.76992859  0.20671076     0.92100
Mg211      Mg  0.55800938  0.57769835  0.31809756     1.58000
O212        O  0.52151783  0.59098828  0.35106378    -0.81600
O213        O  0.59425776  0.56205321  0.28485836    -0.75800
O214        O  0.77898245  0.72593976  0.27253374    -0.81600
O215        O  0.62562688  0.80580583  0.21883978    -0.83400
O216        O  0.42652443  0.62841084  0.28559090    -0.81700
C217        C  0.63161840  0.59191919  0.27148618     0.86500
O218        O  0.51766840  0.60030371  0.29529459    -0.88800
O219        O  0.62206561  0.65770386  0.31921825    -0.88900
O220        O  0.58203436  0.69804207  0.32932540    -0.76000
Mg221      Mg  0.71234283  0.69422694  0.24850843     1.58000
O222        O  0.76859912  0.66354853  0.29407085    -0.83300
H223        H  0.58549871  0.65823776  0.20641246    -0.07100
O224        O  0.55038629  0.70740222  0.27807348    -0.88600
H225        H  0.56318769  0.76860382  0.29617054    -0.06900
H226        H  0.48982875  0.53590414  0.27706951    -0.07100
C227        C  0.57626868  0.75337896  0.28260352     0.86500
C228        C  0.61278615  0.67337329  0.22057728     0.87100
C229        C  0.50469274  0.57643082  0.27658810     0.87100
H230        H  0.65017167  0.71410613  0.34342496    -0.07100
O231        O  0.72656228  0.74933384  0.30037624    -0.76100
Mg232      Mg  0.50619201  0.66079631  0.30759681     1.58000
H233        H  0.73873237  0.81295664  0.28301802    -0.07100
C234        C  0.57855935  0.79214740  0.21830479     0.92100
O235        O  0.45313423  0.65276887  0.24894758    -0.83300
C236        C  0.41753887  0.63344853  0.26388427     0.92200
O237        O  0.76490651  0.75012536  0.22218065    -0.83300
Mg238      Mg  0.69617042  0.66354101  0.30876335     1.58200
O239        O  0.54373991  0.75087567  0.22754562    -0.81600
O240        O  0.60253961  0.55462492  0.34244657    -0.83300
O241        O  0.35928540  0.47742793  0.58388196    -0.88900
C242        C  0.29076491  0.35443714  0.54183997     0.87100
Mg243      Mg  0.37286332  0.54880848  0.57281103     1.58100
O244        O  0.42392244  0.41886475  0.54756107    -0.88600
O245        O  0.40354530  0.44603968  0.59812899    -0.76000
C246        C  0.45733293  0.57983472  0.46027676     0.92200
O247        O  0.27230684  0.45296592  0.54574326    -0.75800
O248        O  0.43960428  0.60044792  0.47396189    -0.83300
Mg249      Mg  0.28242363  0.41569345  0.57875719     1.58000
C250        C  0.49841632  0.42708837  0.48470990     0.92100
O251        O  0.28309002  0.37353067  0.61244291    -0.81600
H252        H  0.48793517  0.44213096  0.56618378    -0.06900
C253        C  0.36851051  0.44900480  0.48992669     0.87000
O254        O  0.45533060  0.57354757  0.56122625    -0.76100
O255        O  0.31518851  0.38217293  0.55846401    -0.88800
O256        O  0.48173033  0.40780504  0.50479878    -0.81600
C257        C  0.36893932  0.28538307  0.54918716     0.92200
C258        C  0.29519818  0.34093801  0.61841273     0.92100
Mg259      Mg  0.47928462  0.51372376  0.50250857     1.58000
O260        O  0.46765828  0.54702177  0.46808685    -0.81600
O261        O  0.49759286  0.48405527  0.53669882    -0.75800
O262        O  0.34010728  0.30006509  0.55703356    -0.81600
O263        O  0.24847891  0.45352005  0.59969569    -0.83400
O264        O  0.43180378  0.64563990  0.53039690    -0.81700
C265        C  0.47020764  0.44790280  0.55094869     0.86500
O266        O  0.45452649  0.55430889  0.52398804    -0.88800
O267        O  0.40262610  0.44944869  0.50196352    -0.88900
O268        O  0.36023227  0.48595955  0.49017160    -0.76000
Mg269      Mg  0.37321037  0.37487034  0.57564219     1.58000
O270        O  0.39906484  0.30973802  0.53228342    -0.83300
H271        H  0.40600612  0.50875311  0.61129544    -0.07100
O272        O  0.34618881  0.52201631  0.53872169    -0.88600
H273        H  0.28431448  0.50222480  0.51922434    -0.06900
H274        H  0.51908214  0.59042460  0.54262569    -0.07100
C275        C  0.30046303  0.49333933  0.53402336     0.86500
C276        C  0.38960377  0.47849150  0.59852566     0.87100
C277        C  0.47804433  0.57378640  0.54238744     0.87100
H278        H  0.34520621  0.41654102  0.47888787    -0.07100
O279        O  0.31325704  0.34787812  0.52454338    -0.76100
Mg280      Mg  0.39539400  0.56426426  0.50950440     1.58000
H281        H  0.24937261  0.33510737  0.54206472    -0.07100
C282        C  0.25749560  0.49875750  0.59790244     0.92100
O283        O  0.38393522  0.62166729  0.56263374    -0.83300
C284        C  0.41865118  0.65603798  0.55021715     0.92200
O285        O  0.32202217  0.33065861  0.60512990    -0.83300
Mg286      Mg  0.39884875  0.37990682  0.51541281     1.58200
O287        O  0.29563623  0.53318769  0.58663721    -0.81600
O288        O  0.50221635  0.46892751  0.47899910    -0.83300
O289        O  0.12514132  0.46574984  0.90617263    -0.88900
C290        C  0.06828709  0.34770196  0.95225134     0.87100
Mg291      Mg  0.18333628  0.54011890  0.91372044     1.58100
O292        O  0.00887229  0.41920131  0.94193199    -0.88600
O293        O  0.05038366  0.42763563  0.88982242    -0.76000
C294        C  0.13949574  0.58178275  0.02621369     0.92200
O295        O  0.18988502  0.44982825  0.94526263    -0.75800
O296        O  0.17720024  0.60484884  0.01178659    -0.83300
Mg297      Mg  0.13989694  0.40623081  0.91354074     1.58000
C298        C  0.93958527  0.42743151  0.00349006     0.92100
O299        O  0.09250326  0.36129456  0.88023499    -0.81600
H300        H  0.96268221  0.43551651  0.92277003    -0.06900
C301        C  0.09437932  0.45214141  0.99977942     0.87000
O302        O  0.12497630  0.56299935  0.92470019    -0.76100
O303        O  0.07330648  0.37434390  0.93489031    -0.88800
O304        O  0.93887428  0.41275536  0.98282359    -0.81600
C305        C  0.91744746  0.28533419  0.94356977     0.92200
C306        C  0.04630749  0.32545464  0.87670569     0.92100
Mg307      Mg  0.04627854  0.51480560  0.98532700     1.58000
O308        O  0.09501407  0.54898583  0.01874421    -0.81600
O309        O  0.99549479  0.48152161  0.95125729    -0.75800
O310        O  0.96238910  0.29594601  0.93950233    -0.81600
O311        O  0.21327799  0.44246028  0.89228096    -0.83400
O312        O  0.22870213  0.64395360  0.95382507    -0.81700
C313        C  0.98770017  0.44484481  0.93780612     0.86500
O314        O  0.11191759  0.55386610  0.96293828    -0.88800
O315        O  0.06022799  0.45023078  0.98637278    -0.88900
O316        O  0.14037929  0.48980340  0.99899842    -0.76000
Mg317      Mg  0.00808353  0.36343296  0.91647550     1.58000
O318        O  0.91145118  0.30934837  0.96009473    -0.83300
H319        H  0.11216608  0.48986755  0.87575360    -0.07100
O320        O  0.18823255  0.52056845  0.94897990    -0.88600
H321        H  0.23082823  0.50397807  0.96952580    -0.06900
H322        H  0.08018879  0.58303953  0.94236796    -0.07100
C323        C  0.20451599  0.49252643  0.95500951     0.86500
C324        C  0.09701935  0.46240550  0.88989165     0.87100
C325        C  0.10526035  0.56786696  0.94351551     0.87100
H326        H  0.08460530  0.42133950  0.01185825    -0.07100
O327        O  0.03794023  0.34212875  0.96901331    -0.76100
Mg328      Mg  0.18297222  0.56554248  0.97700727     1.58000
H329        H  0.08936728  0.32808601  0.95303299    -0.07100
C330        C  0.24982272  0.48859742  0.89175524     0.92100
O331        O  0.24337425  0.61818811  0.91958498    -0.83300
C332        C  0.24835110  0.65318171  0.93297486     0.92200
O333        O  0.01313194  0.30981363  0.89277977    -0.83300
Mg334      Mg  0.98718576  0.37782201  0.97565156     1.58200
O335        O  0.24551455  0.52466791  0.90023686    -0.81600
O336        O  0.97710485  0.46967474  0.01017043    -0.83300
O337        O  0.12387859  0.69735089  0.25124676    -0.88900
C338        C  0.08319521  0.76826163  0.20477982     0.87100
Mg339      Mg  0.17878598  0.67819379  0.24327911     1.58100
O340        O  0.01316084  0.63618002  0.21238507    -0.88600
O341        O  0.04711455  0.65971329  0.26575091    -0.76000
C342        C  0.14074552  0.60324766  0.12873607     0.92200
O343        O  0.19848062  0.78361908  0.21480941    -0.75800
O344        O  0.17873001  0.62170768  0.14301734    -0.83300
Mg345      Mg  0.14566713  0.77465953  0.24554919     1.58000
C346        C  0.93894999  0.55417905  0.15079244     0.92100
O347        O  0.09684896  0.77299144  0.27735164    -0.81600
H348        H  0.96126542  0.57295874  0.23039885    -0.06900
C349        C  0.09785608  0.68909763  0.15610306     0.87000
O350        O  0.11822144  0.59902333  0.23023466    -0.76100
O351        O  0.08244705  0.74537202  0.22290362    -0.88800
O352        O  0.93847332  0.57625935  0.16949715    -0.81600
C353        C  0.93293606  0.69050555  0.21097599     0.92200
C354        C  0.05183827  0.76449768  0.28134518     0.92100
Mg355      Mg  0.04658754  0.57742345  0.16903855     1.58000
O356        O  0.09585487  0.59029849  0.13583817    -0.81600
O357        O  0.99379634  0.55899578  0.20220554    -0.75800
O358        O  0.97854161  0.72188978  0.21583575    -0.81600
O359        O  0.21458141  0.80408842  0.26892081    -0.83400
O360        O  0.23160659  0.63021663  0.20031416    -0.81700
C361        C  0.98792329  0.58859617  0.21581928     0.86500
O362        O  0.11100638  0.60198662  0.19185010    -0.88800
O363        O  0.06086092  0.65364899  0.16648590    -0.88900
O364        O  0.14337813  0.69802304  0.15870584    -0.76000
Mg365      Mg  0.01312501  0.68969544  0.23923567     1.58000
O366        O  0.92447911  0.65885474  0.19480795    -0.83300
H367        H  0.10527086  0.65532713  0.28057611    -0.07100
O368        O  0.18920657  0.70862549  0.20868379    -0.88600
H369        H  0.23907010  0.77049929  0.19052518    -0.06900
H370        H  0.07440094  0.53707431  0.21015650    -0.07100
C371        C  0.21045475  0.75467324  0.20426643     0.86500
C372        C  0.09310722  0.67060559  0.26660168     0.87100
C373        C  0.10102814  0.57773384  0.21050506     0.87100
H374        H  0.09146221  0.71346189  0.14466299    -0.07100
O375        O  0.05477707  0.74488858  0.18721306    -0.76100
Mg376      Mg  0.18416078  0.66265767  0.17905510     1.58000
H377        H  0.10816013  0.80930411  0.20392964    -0.07100
C378        C  0.24934544  0.79279003  0.26870002     0.92100
O379        O  0.23391707  0.65575027  0.23707561    -0.83300
C380        C  0.24750165  0.63546847  0.22174899     0.92200
O381        O  0.01680929  0.74356360  0.26613053    -0.83300
Mg382      Mg  0.99628427  0.65916284  0.17878461     1.58200
O383        O  0.24392555  0.75352699  0.25837383    -0.81600
O384        O  0.97807860  0.55198972  0.14502006    -0.83300
O385        O  0.58030643  0.91849646  0.91141081    -0.88900
C386        C  0.70739521  0.99438666  0.86926085     0.87100
Mg387      Mg  0.51089578  0.85696264  0.89934257     1.58100
O388        O  0.62500347  0.04233839  0.87698255    -0.88600
O389        O  0.60506497  0.99185802  0.92739668    -0.76000
C390        C  0.47884652  0.91492725  0.78878827     0.92200
O391        O  0.61187808  0.86805091  0.86995691    -0.75800
O392        O  0.45516573  0.87659196  0.80265041    -0.83300
Mg393      Mg  0.64732733  0.91423871  0.90344145     1.58000
C394        C  0.61949207  0.11227602  0.81587689     0.92100
O395        O  0.68997653  0.95642740  0.93697660    -0.81600
H396        H  0.60247811  0.08347175  0.89607471    -0.06900
C397        C  0.60796822  0.96624971  0.81767024     0.87000
O398        O  0.48178192  0.91176580  0.88957490    -0.76100
O399        O  0.67555406  0.98366228  0.88510298    -0.88800
O400        O  0.63290774  0.11382694  0.83692041    -0.81600
C401        C  0.76175966  0.14002675  0.88070022     0.92200
C402        C  0.71884919  0.00213813  0.94392350     0.92100
Mg403      Mg  0.53547812  0.00374954  0.83171144     1.58000
O404        O  0.50947965  0.95912119  0.79690987    -0.81600
O405        O  0.56036771  0.05137327  0.86651670    -0.75800
O406        O  0.74998630  0.09603656  0.88717690    -0.81600
O407        O  0.61559476  0.83969079  0.92247411    -0.83400
O408        O  0.41421139  0.82393228  0.85941338    -0.81700
C409        C  0.59638247  0.06037848  0.88073584     0.86500
O410        O  0.49997563  0.93642844  0.85268530    -0.88800
O411        O  0.60528859  0.99715746  0.83157069    -0.88900
O412        O  0.57234890  0.91935916  0.81684458    -0.76000
Mg413      Mg  0.67507473  0.04274726  0.90502873     1.58000
O414        O  0.73649728  0.14491790  0.86423297    -0.83300
H415        H  0.54610554  0.92541148  0.93993577    -0.07100
O416        O  0.53961072  0.86577521  0.86509076    -0.88600
H417        H  0.56191253  0.82894921  0.84383685    -0.06900
H418        H  0.46191846  0.95839869  0.87347336    -0.07100
C419        C  0.57018768  0.85275453  0.85909362     0.86500
C420        C  0.57620641  0.94399843  0.92700948     0.87100
C421        C  0.48035309  0.93636160  0.87176751     0.87100
H422        H  0.64103674  0.97980106  0.80635537    -0.07100
O423        O  0.71391603  0.02600006  0.85308943    -0.76100
Mg424      Mg  0.49411588  0.87048008  0.83706212     1.58000
H425        H  0.73067948  0.97687814  0.86929493    -0.07100
C426        C  0.57123368  0.80005489  0.92188420     0.92100
O427        O  0.44080865  0.79084305  0.88613629    -0.83300
C428        C  0.40639332  0.79802657  0.87840646     0.92200
O429        O  0.72244150  0.03955526  0.93282514    -0.83300
Mg430      Mg  0.67297098  0.07084103  0.84544473     1.58200
O431        O  0.53331051  0.79973020  0.91231230    -0.81600
O432        O  0.57786704  0.07459749  0.80876481    -0.83300
O433        O  0.34730194  0.93917492  0.57058027    -0.88900
C434        C  0.27737046  0.98135413  0.61808017     0.87100
Mg435      Mg  0.36803536  0.88470805  0.57604651     1.58100
O436        O  0.40979899  0.04943580  0.60774081    -0.88600
O437        O  0.38016499  0.01426920  0.55503746    -0.76000
C438        C  0.45071542  0.91771122  0.68778098     0.92200
O439        O  0.26447247  0.86556746  0.60825303    -0.75800
O440        O  0.43354125  0.88134289  0.67285815    -0.83300
Mg441      Mg  0.26974573  0.91722306  0.57784718     1.58000
C442        C  0.49246851  0.11739901  0.66883549     0.92100
O443        O  0.27097396  0.96536352  0.54586678    -0.81600
H444        H  0.47259043  0.09934795  0.58879563    -0.06900
C445        C  0.35963673  0.95822844  0.66404734     0.87000
O446        O  0.44890436  0.94440067  0.58766968    -0.76100
O447        O  0.30030294  0.98080237  0.60020033    -0.88800
O448        O  0.47343622  0.11855855  0.64934594    -0.81600
C449        C  0.35984763  0.13185880  0.61163994     0.92200
C450        C  0.27817448  0.00978746  0.54226020     0.92100
Mg451      Mg  0.47295763  0.01296141  0.64923285     1.58000
O452        O  0.46228377  0.96266274  0.68180260    -0.81600
O453        O  0.48761550  0.06560134  0.61614502    -0.75800
O454        O  0.32622098  0.08683006  0.60707134    -0.81600
O455        O  0.23682498  0.84729870  0.55531078    -0.83400
O456        O  0.42385713  0.83463207  0.61526290    -0.81700
C457        C  0.45738768  0.07287570  0.60342064     0.86500
O458        O  0.44842656  0.95021286  0.62611101    -0.88800
O459        O  0.39255727  0.99511569  0.65169646    -0.88900
O460        O  0.35251002  0.91354853  0.66177601    -0.76000
Mg461      Mg  0.35327599  0.04911343  0.58265624     1.58000
O462        O  0.39093487  0.13862706  0.62794058    -0.83300
H463        H  0.38557580  0.95709665  0.54011119    -0.07100
O464        O  0.33972753  0.87208895  0.61102982    -0.88600
H465        H  0.27985008  0.82389798  0.63083945    -0.06900
H466        H  0.51252834  0.98701969  0.60708389    -0.07100
C467        C  0.29423324  0.85221365  0.61699309     0.86500
C468        C  0.37133626  0.96920859  0.55454768     0.87100
C469        C  0.47169266  0.96076989  0.60716135     0.87100
H470        H  0.33681760  0.96462288  0.67657927    -0.07100
O471        O  0.30140823  0.01006443  0.63541884    -0.76100
Mg472      Mg  0.38902196  0.87666632  0.63882194     1.58000
H473        H  0.23615656  0.95765746  0.61886226    -0.07100
C474        C  0.25010930  0.81420722  0.55424135     0.92100
O475        O  0.39114988  0.82895082  0.57970762    -0.83300
C476        C  0.41702165  0.81931317  0.59373401     0.92200
O477        O  0.29379059  0.04258450  0.55841817    -0.83300
Mg478      Mg  0.38870744  0.06520181  0.64219996     1.58200
O479        O  0.29229925  0.82195940  0.56228356    -0.81600
O480        O  0.49639872  0.07938610  0.67440248    -0.83300
O481        O  0.70067057  0.59765939  0.08124469    -0.88900
C482        C  0.77464274  0.71720786  0.03689702     0.87100
Mg483      Mg  0.67619706  0.52237965  0.07304779     1.58100
O484        O  0.64035588  0.65183757  0.04400330    -0.88600
O485        O  0.66529111  0.63639029  0.09701251    -0.76000
C486        C  0.60649047  0.49311224  0.95867025     0.92200
O487        O  0.78281536  0.60992616  0.04296216    -0.75800
O488        O  0.61855645  0.46798028  0.97267041    -0.83300
Mg489      Mg  0.77879677  0.65343339  0.07461428     1.58000
C490        C  0.56638564  0.64764675  0.98068941     0.92100
O491        O  0.78262692  0.70036018  0.10741568    -0.81600
H492        H  0.57621666  0.63813449  0.06147306    -0.06900
C493        C  0.69476130  0.61884049  0.98742729     0.87000
O494        O  0.59810406  0.50660908  0.06053502    -0.76100
O495        O  0.75000263  0.69044326  0.05387542    -0.88800
O496        O  0.58406599  0.66774741  0.00046950    -0.81600
C497        C  0.69575077  0.78700236  0.04462645     0.92200
C498        C  0.77505969  0.73660205  0.11250942     0.92100
Mg499      Mg  0.58034825  0.55832838  0.99973938     1.58000
O500        O  0.59505068  0.52474539  0.96677177    -0.81600
O501        O  0.56268091  0.59236594  0.03306660    -0.75800
O502        O  0.72712184  0.77361214  0.04990351    -0.81600
O503        O  0.80797467  0.61076974  0.09556792    -0.83400
O504        O  0.62281955  0.42022226  0.02976727    -0.81700
C505        C  0.59228251  0.62810057  0.04700378     0.86500
O506        O  0.60037871  0.51525348  0.02205794    -0.88800
O507        O  0.66134721  0.62146077  0.99960076    -0.88900
O508        O  0.69996301  0.58007253  0.98860896    -0.76000
Mg509      Mg  0.69555332  0.70288199  0.07158358     1.58000
O510        O  0.66597623  0.76489751  0.02750858    -0.83300
H511        H  0.66042554  0.57318108  0.11106801    -0.07100
O512        O  0.70664067  0.54199261  0.03837119    -0.88600
H513        H  0.76685052  0.55526431  0.01889061    -0.06900
H514        H  0.53619245  0.48947598  0.04075045    -0.07100
C515        C  0.75254130  0.56783644  0.03309534     0.86500
C516        C  0.67544378  0.60127976  0.09721886     0.87100
C517        C  0.57651179  0.50224911  0.04088821     0.87100
H518        H  0.71959242  0.65020436  0.97595187    -0.07100
O519        O  0.75256904  0.72497482  0.01976011    -0.76100
Mg520      Mg  0.65962318  0.50191030  0.00886973     1.58000
H521        H  0.81600397  0.73504273  0.03674780    -0.07100
C522        C  0.79248376  0.56342168  0.09606834     0.92100
O523        O  0.64822893  0.44354855  0.06654915    -0.83300
C524        C  0.62677668  0.40927359  0.05131794     0.92200
O525        O  0.75195438  0.75030779  0.09854469    -0.83300
Mg526      Mg  0.66689297  0.69513664  0.01093472     1.58200
O527        O  0.74968045  0.52982233  0.08763434    -0.81600
O528        O  0.56181344  0.60535796  0.97528743    -0.83300
O529        O  0.44918709  0.35810361  0.73947162    -0.88900
C530        C  0.33447299  0.28962719  0.78755280     0.87100
Mg531      Mg  0.52557871  0.37965006  0.74525455     1.58100
O532        O  0.40203351  0.42169647  0.77736119    -0.88600
O533        O  0.40743049  0.39119665  0.72445251    -0.76000
C534        C  0.57555137  0.46287047  0.85753668     0.92200
O535        O  0.43793726  0.27605146  0.77744454    -0.75800
O536        O  0.59342730  0.44429034  0.84280049    -0.83300
Mg537      Mg  0.39141722  0.28128569  0.74718631     1.58000
C538        C  0.41484705  0.50188496  0.83910272     0.93300
O539        O  0.34331362  0.28163119  0.71530830    -0.81600
H540        H  0.41552047  0.48410019  0.75868441    -0.06900
C541        C  0.44015995  0.37140710  0.83375116     0.87000
O542        O  0.54679032  0.45944698  0.75729827    -0.76100
O543        O  0.35900008  0.31230608  0.76970220    -0.88800
O544        O  0.39575822  0.48415919  0.81925274    -0.81600
C545        C  0.26811042  0.37249622  0.78060971     0.92200
C546        C  0.30599896  0.28888375  0.71200643     0.92100
Mg547      Mg  0.50199716  0.48454642  0.81913939     1.58000
O548        O  0.54241842  0.47453162  0.85144043    -0.81600
O549        O  0.46440228  0.49936001  0.78613129    -0.75800
O550        O  0.27914079  0.33900022  0.77664320    -0.81600
O551        O  0.42856068  0.24861037  0.72464799    -0.83400
O552        O  0.63139595  0.43186186  0.78614400    -0.81700
C553        C  0.42662719  0.46911874  0.77321863     0.86500
O554        O  0.54053825  0.45991574  0.79582350    -0.88800
O555        O  0.43725306  0.40456314  0.82163443    -0.88900
O556        O  0.47753824  0.36405740  0.83129650    -0.76000
Mg557      Mg  0.34479176  0.36505422  0.75219669     1.58000
O558        O  0.29211839  0.40324776  0.79706932    -0.83300
H559        H  0.46986993  0.39610277  0.70897502    -0.07100
O560        O  0.50798530  0.35125012  0.78040614    -0.88600
H561        H  0.49566415  0.29161733  0.79990096    -0.06900
H562        H  0.56769327  0.52289756  0.77632640    -0.07100
C563        C  0.48174943  0.30585509  0.78620313     0.86500
C564        C  0.44343068  0.38207967  0.72358821     0.87100
C565        C  0.55314202  0.48244746  0.77667816     0.87100
H566        H  0.41011312  0.34852806  0.84622852    -0.07100
O567        O  0.32955886  0.31353986  0.80472329    -0.76100
Mg568      Mg  0.55267449  0.39987644  0.80869736     1.58000
H569        H  0.31603395  0.24847708  0.78844357    -0.07100
C570        C  0.47541078  0.26143565  0.72318461     0.92100
O571        O  0.60638236  0.40464676  0.74956554    -0.83300
C572        C  0.64134971  0.42654651  0.76465309     0.92200
O573        O  0.29012228  0.30549008  0.72820707    -0.83300
Mg574      Mg  0.36304805  0.40035363  0.81168738     1.58200
O575        O  0.51155596  0.30369573  0.73087520    -0.81600
O576        O  0.45780481  0.50727763  0.84464762    -0.83300
C577        C  0.59965197  0.44279892  0.92183976    -0.09700
C578        C  0.60562721  0.48719225  0.93233268     0.06500
C579        C  0.60998921  0.52611184  0.91707547    -0.03500
C580        C  0.60208201  0.51768808  0.89291330    -0.07900
C581        C  0.59270761  0.47224939  0.88261014     0.05600
C582        C  0.59387813  0.43543147  0.89725399    -0.03000
Br583      Br  0.58461521  0.37318302  0.88482641    -0.02700
H584        H  0.59797987  0.41305118  0.93279424     0.09500
H585        H  0.60310401  0.54718983  0.88197144     0.07500
Br586      Br  0.62959121  0.59352484  0.92727924    -0.03100
C587        C  0.47425767  0.14165062  0.70686261    -0.09700
C588        C  0.50214225  0.15697353  0.68585456     0.06500
C589        C  0.52730110  0.20853227  0.67907200    -0.03500
C590        C  0.52069664  0.24309026  0.69229225    -0.07900
C591        C  0.48833713  0.22647709  0.71193916     0.05600
C592        C  0.46678082  0.17591475  0.71980846    -0.03000
Br593      Br  0.42565350  0.15154960  0.74768146    -0.02700
H594        H  0.45458106  0.10200108  0.71216578     0.09500
H595        H  0.53840150  0.28227292  0.68644735     0.07500
Br596      Br  0.56886738  0.23263094  0.65130281    -0.03100
C597        C  0.59310780  0.69683737  0.94417725    -0.09700
C598        C  0.55845477  0.67752217  0.96294320     0.06500
C599        C  0.52381048  0.69435767  0.96633524    -0.03500
C600        C  0.52573302  0.73178195  0.95147658    -0.07900
C601        C  0.56317840  0.75390444  0.93380484     0.05600
C602        C  0.59616073  0.73523281  0.92981573    -0.03000
Br603      Br  0.64721190  0.76211513  0.90555890    -0.02700
H604        H  0.62041512  0.68460960  0.94169510     0.09500
H605        H  0.50019552  0.74594871  0.95470031     0.07500
Br606      Br  0.47512420  0.66888372  0.99157424    -0.03100
C607        C  0.50638159  0.93881632  0.72290861    -0.09700
C608        C  0.45782413  0.90913986  0.71296696     0.06500
C609        C  0.41631722  0.87788104  0.72803854    -0.03500
C610        C  0.42370972  0.87815460  0.75253491    -0.07900
C611        C  0.47216227  0.90970276  0.76259620     0.05600
C612        C  0.51400906  0.93882642  0.74717767    -0.03000
Br613      Br  0.58343724  0.97855314  0.75779219    -0.02700
H614        H  0.53872770  0.96292816  0.71168268     0.09500
H615        H  0.39103458  0.85541521  0.76380462     0.07500
Br616      Br  0.34802998  0.83790070  0.71624231    -0.03100
C617        C  0.81048219  0.52327402  0.12926216    -0.09700
C618        C  0.82484961  0.54706779  0.10728941     0.06500
C619        C  0.87252965  0.55997854  0.09764232    -0.03500
C620        C  0.90765880  0.55471487  0.11121238    -0.07900
C621        C  0.89600198  0.53775139  0.13451845     0.05600
C622        C  0.84581373  0.51862316  0.14298239    -0.03000
Br623      Br  0.82499662  0.48930331  0.17371880    -0.02700
H624        H  0.77310984  0.51177715  0.13646226     0.09500
H625        H  0.94588966  0.56900629  0.10436265     0.07500
Br626      Br  0.89242069  0.58821727  0.06670403    -0.03100
C627        C  0.32677537  0.48049970  0.88973886    -0.09700
C628        C  0.29830920  0.50073679  0.88046943     0.06500
C629        C  0.31456311  0.52912236  0.85952595    -0.03500
C630        C  0.35650868  0.53362039  0.84728943    -0.07900
C631        C  0.38332986  0.51083964  0.85579603     0.05600
C632        C  0.36940484  0.48578954  0.87771042    -0.03000
Br633      Br  0.40286546  0.45240380  0.89050208    -0.02700
H634        H  0.31461257  0.45883101  0.90593895     0.09500
H635        H  0.36621518  0.55222086  0.83028995     0.07500
Br636      Br  0.27710504  0.55721529  0.84556907    -0.03100
C637        C  0.11143108  0.54778968  0.06690141    -0.09700
C638        C  0.14547216  0.58916467  0.05255778     0.06500
C639        C  0.18189970  0.63450163  0.06401923    -0.03500
C640        C  0.18249959  0.63771997  0.08890344    -0.07900
C641        C  0.14694655  0.59651829  0.10298231     0.05600
C642        C  0.11166767  0.55112276  0.09145667    -0.03000
Br643      Br  0.06231988  0.49165783  0.10844923    -0.02700
H644        H  0.08359579  0.51206524  0.05893834     0.09500
H645        H  0.20913637  0.67347967  0.09719025     0.07500
Br646      Br  0.22840363  0.69449647  0.04667922    -0.03100
C647        C  0.32362059  0.74166415  0.93218290    -0.09700
C648        C  0.27806980  0.70452013  0.92198126     0.06500
C649        C  0.27036721  0.70964596  0.89773048    -0.03500
C650        C  0.31107272  0.74468946  0.88346171    -0.07900
C651        C  0.35926050  0.77652754  0.89318423     0.05600
C652        C  0.36363954  0.77808699  0.91808300    -0.03000
Br653      Br  0.42501840  0.82666398  0.93391146    -0.02700
H654        H  0.33013267  0.73939654  0.95069465     0.09500
H655        H  0.30616099  0.74364678  0.86462631     0.07500
Br656      Br  0.20643705  0.66451960  0.88262700    -0.03100
C657        C  0.79318300  0.21430937  0.90766915    -0.09700
C658        C  0.80381648  0.18335427  0.89348039     0.06500
C659        C  0.85097387  0.18596521  0.89625830    -0.03500
C660        C  0.88616109  0.21851585  0.91288500    -0.07900
C661        C  0.87568303  0.24904388  0.92756129     0.05600
C662        C  0.82839731  0.24683781  0.92464593    -0.03000
Br663      Br  0.80916972  0.28666507  0.94313303    -0.02700
H664        H  0.75631330  0.21140445  0.90632675     0.09500
H665        H  0.92206869  0.21946034  0.91440229     0.07500
Br666      Br  0.86911624  0.14518117  0.87780035    -0.03100
C667        C  0.26698814  0.31922313  0.68340241    -0.09700
C668        C  0.28624076  0.28702815  0.68819188     0.06500
C669        C  0.29538301  0.26313926  0.66939787    -0.03500
C670        C  0.29254202  0.27754305  0.64647683    -0.07900
C671        C  0.28156998  0.31625858  0.64184254     0.05600
C672        C  0.26512367  0.33453505  0.66057695    -0.03000
Br673      Br  0.24518605  0.38452579  0.65729041    -0.02700
H674        H  0.25804212  0.33688073  0.69759678     0.09500
H675        H  0.30257495  0.26073311  0.63231104     0.07500
Br676      Br  0.31415400  0.21263074  0.67381217    -0.03100
C677        C  0.44095277  0.75218914  0.59657817    -0.09700
C678        C  0.43749412  0.78854315  0.58321900     0.06500
C679        C  0.44474583  0.78879747  0.55841989    -0.03500
C680        C  0.44505847  0.74800207  0.54738246    -0.07900
C681        C  0.44073104  0.70769412  0.56064617     0.05600
C682        C  0.44375704  0.71274900  0.58554999    -0.03000
Br683      Br  0.44685300  0.66382525  0.60563460    -0.02700
H684        H  0.43762036  0.75207887  0.61549278     0.09500
H685        H  0.44447694  0.74593981  0.52841928     0.07500
Br686      Br  0.45187022  0.84243681  0.53816835    -0.03100
C687        C  0.31996606  0.16468150  0.58437395    -0.09700
C688        C  0.36437526  0.17305905  0.59597008     0.06500
C689        C  0.41170329  0.21637324  0.58958880    -0.03500
C690        C  0.41336447  0.25068041  0.57259769    -0.07900
C691        C  0.36853686  0.24270853  0.56165693     0.05600
C692        C  0.32168764  0.19880342  0.56754695    -0.03000
Br693      Br  0.25865303  0.18356859  0.55292720    -0.02700
H694        H  0.28334552  0.13111810  0.58839558     0.09500
H695        H  0.44955063  0.28482525  0.56864793     0.07500
Br696      Br  0.47542460  0.22995480  0.60268497    -0.03100
C697        C  0.51851364  0.60591399  0.39934588    -0.09700
C698        C  0.47928017  0.60036262  0.38426583     0.06500
C699        C  0.43371163  0.59267299  0.39492549    -0.03500
C700        C  0.42798216  0.58919036  0.41972607    -0.07900
C701        C  0.46689337  0.59297207  0.43453494     0.05600
C702        C  0.51276266  0.60224322  0.42384687    -0.03000
Br703      Br  0.56981872  0.61108693  0.44200106    -0.02700
H704        H  0.55447707  0.61309552  0.39203090     0.09500
H705        H  0.39198815  0.58107545  0.42737677     0.07500
Br706      Br  0.37653940  0.58248136  0.37659589    -0.03100
C707        C  0.28364273  0.61258811  0.25575361    -0.09700
C708        C  0.28302046  0.61930084  0.23107246     0.06500
C709        C  0.32154710  0.61925557  0.21765709    -0.03500
C710        C  0.36172281  0.61800454  0.22899125    -0.07900
C711        C  0.36617477  0.61878213  0.25386338     0.05600
C712        C  0.32475752  0.61312161  0.26716515    -0.03000
Br713      Br  0.32377450  0.61057447  0.30080081    -0.02700
H714        H  0.25345117  0.61055621  0.26662596     0.09500
H715        H  0.39179523  0.62015385  0.21799719     0.07500
Br716      Br  0.32493039  0.62671665  0.18419000    -0.03100
C717        C  0.90084366  0.73608333  0.23423852    -0.09700
C718        C  0.89299036  0.68923857  0.22633504     0.06500
C719        C  0.85455160  0.64417094  0.23722554    -0.03500
C720        C  0.82419046  0.64669866  0.25519223    -0.07900
C721        C  0.83174007  0.69373607  0.26273470     0.05600
C722        C  0.87111084  0.73873155  0.25218654    -0.03000
Br723      Br  0.88787218  0.80543813  0.26222110    -0.02700
H724        H  0.93150289  0.77122912  0.22679048     0.09500
H725        H  0.79382734  0.61173717  0.26288304     0.07500
Br726      Br  0.84425456  0.57871687  0.22944080    -0.03100
C727        C  0.80024032  0.75311911  0.17749154    -0.09700
C728        C  0.77382299  0.77835293  0.18308754     0.06500
C729        C  0.76278821  0.80250348  0.16492834    -0.03500
C730        C  0.77022005  0.79366278  0.14170844    -0.07900
C731        C  0.78748031  0.76014864  0.13608158     0.05600
C732        C  0.80694367  0.74356899  0.15425140    -0.03000
Br733      Br  0.83932902  0.70452820  0.14919721    -0.02700
H734        H  0.81171002  0.73646398  0.19118927     0.09500
H735        H  0.75796948  0.80969667  0.12804899     0.07500
Br736      Br  0.73441168  0.84507174  0.17017605    -0.03100
C737        C  0.46897658  0.37788600  0.44841360    -0.09700
C738        C  0.50433941  0.39616046  0.46682130     0.06500
C739        C  0.53778391  0.37768882  0.46965197    -0.03500
C740        C  0.53399079  0.33973912  0.45464440    -0.07900
C741        C  0.49588003  0.31871903  0.43735094     0.05600
C742        C  0.46398743  0.33892469  0.43394604    -0.03000
Br743      Br  0.41182183  0.31344689  0.41035048    -0.02700
H744        H  0.44273853  0.39158873  0.44626394     0.09500
H745        H  0.55863746  0.32438300  0.45745941     0.07500
Br746      Br  0.58772949  0.40206456  0.49417635    -0.03100
C747        C  0.34091963  0.86123283  0.26960885    -0.09700
C748        C  0.29660997  0.82538667  0.28159987     0.06500
C749        C  0.29661723  0.82355257  0.30612832    -0.03500
C750        C  0.33884652  0.86030938  0.31844149    -0.07900
C751        C  0.38134845  0.90028517  0.30669988     0.05600
C752        C  0.38355956  0.89851965  0.28194348    -0.03000
Br753      Br  0.44172850  0.94652189  0.26378339    -0.02700
H754        H  0.34144381  0.86169618  0.25060898     0.09500
H755        H  0.33668435  0.85938122  0.33741603     0.07500
Br756      Br  0.23842040  0.77327105  0.32357481    -0.03100
C757        C  0.26782592  0.01091236  0.47662816    -0.09700
C758        C  0.30713628  0.06136432  0.47187045     0.06500
C759        C  0.32663668  0.09655457  0.49046010    -0.03500
C760        C  0.31086533  0.07936261  0.51330685    -0.07900
C761        C  0.27756336  0.02731071  0.51824811     0.05600
C762        C  0.25368090  0.99341500  0.49955695    -0.03000
Br763      Br  0.20433727  0.92238024  0.50399215    -0.02700
H764        H  0.25068539  0.98357116  0.46254762     0.09500
H765        H  0.32913010  0.10637803  0.52742257     0.07500
Br766      Br  0.37956792  0.16680656  0.48692563    -0.03100
C767        C  0.72478529  0.97353809  0.98346505    -0.09700
C768        C  0.74498494  0.01234227  0.96665051     0.06500
C769        C  0.78245096  0.06219490  0.97347669    -0.03500
C770        C  0.79173219  0.07383572  0.99720658    -0.07900
C771        C  0.76507969  0.03637116  0.01429152     0.05600
C772        C  0.73413254  0.98489789  0.00717921    -0.03000
Br773      Br  0.69615003  0.92824173  0.02810417    -0.02700
H774        H  0.69725534  0.93476853  0.97846009     0.09500
H775        H  0.81730093  0.11302512  0.00230753     0.07500
Br776      Br  0.82033299  0.11687350  0.95164320    -0.03100
C777        C  0.84959919  0.37040624  0.01544961    -0.09700
C778        C  0.90175359  0.39054743  0.02000807     0.06500
C779        C  0.91658258  0.36573372  0.03614293    -0.03500
C780        C  0.87962503  0.32020207  0.04655737    -0.07900
C781        C  0.82757671  0.29887719  0.04136740     0.05600
C782        C  0.81237527  0.32521252  0.02624525    -0.03000
Br783      Br  0.74224589  0.29857261  0.01767114    -0.02700
H784        H  0.83800839  0.38840850  0.00248348     0.09500
H785        H  0.89176707  0.30056034  0.05830007     0.07500
Br786      Br  0.98711492  0.38891784  0.04233932    -0.03100
C787        C  0.61912246  0.17776215  0.25339205    -0.09700
C788        C  0.57089407  0.14648639  0.26391068     0.06500
C789        C  0.52918804  0.11569353  0.24878138    -0.03500
C790        C  0.53683756  0.11395654  0.22450389    -0.07900
C791        C  0.58522211  0.14380551  0.21412625     0.05600
C792        C  0.62643096  0.17654775  0.22889598    -0.03000
Br793      Br  0.69444183  0.21704929  0.21667273    -0.02700
H794        H  0.65175048  0.20178814  0.26433547     0.09500
H795        H  0.50453082  0.08885819  0.21359879     0.07500
Br796      Br  0.45973216  0.07671634  0.25979891    -0.03100
C797        C  0.60613969  0.27690413  0.05985400    -0.09700
C798        C  0.60892390  0.27519773  0.08475064     0.06500
C799        C  0.60346324  0.31105872  0.09762973    -0.03500
C800        C  0.60194193  0.35049298  0.08573513    -0.07900
C801        C  0.60818966  0.35695872  0.06097876     0.05600
C802        C  0.60679610  0.31749634  0.04800129    -0.03000
Br803      Br  0.61154398  0.31943752  0.01443405    -0.02700
H804        H  0.60770080  0.24843745  0.04925268     0.09500
H805        H  0.60049712  0.37908567  0.09629103     0.07500
Br806      Br  0.60395890  0.31207612  0.13124575    -0.03100
C807        C  0.64703104  0.84995201  0.08664202    -0.09700
C808        C  0.69334185  0.89153470  0.09466671     0.06500
C809        C  0.73966752  0.89881181  0.08527555    -0.03500
C810        C  0.73904252  0.86539724  0.06843880    -0.07900
C811        C  0.69296436  0.82468237  0.05994624     0.05600
C812        C  0.64651442  0.81683585  0.06936598    -0.03000
Br813      Br  0.58160543  0.76044258  0.06000436    -0.02700
H814        H  0.61103844  0.84420951  0.09319598     0.09500
H815        H  0.77513307  0.87130157  0.06190024     0.07500
Br816      Br  0.80562316  0.95351776  0.09483435    -0.03100
C817        C  0.57965563  0.87305287  0.21710013    -0.09700
C818        C  0.56408349  0.82573319  0.20694762     0.06500
C819        C  0.53802394  0.81281429  0.18547102    -0.03500
C820        C  0.53073556  0.84863626  0.17372440    -0.07900
C821        C  0.54922758  0.89743321  0.18310948     0.05600
C822        C  0.57233705  0.90895375  0.20541928    -0.03000
Br823      Br  0.60137467  0.97514046  0.21930530    -0.02700
H824        H  0.59967113  0.88294198  0.23371350     0.09500
H825        H  0.51380383  0.83963229  0.15640211     0.07500
Br826      Br  0.51735032  0.74929541  0.17028079    -0.03100
C827        C  0.05759654  0.79081632  0.34614363    -0.09700
C828        C  0.00596019  0.75720463  0.35224036     0.06500
C829        C  0.96899691  0.73893787  0.33423785    -0.03500
C830        C  0.98505429  0.74722929  0.31087912    -0.07900
C831        C  0.03741196  0.77304061  0.30495676     0.05600
C832        C  0.07363559  0.79863783  0.32278863    -0.03000
Br833      Br  0.14565935  0.84226908  0.31690135    -0.02700
H834        H  0.08661319  0.80789919  0.35959316     0.09500
H835        H  0.95616191  0.72942003  0.29741339     0.07500
Br836      Br  0.89640006  0.69921398  0.33970712    -0.03100
C837        C  0.71140251  0.54915344  0.39019215    -0.09700
C838        C  0.75230876  0.54867459  0.37920889     0.06500
C839        C  0.75019835  0.53866959  0.35515351    -0.03500
C840        C  0.71030467  0.53523646  0.34185455    -0.07900
C841        C  0.67236417  0.54219640  0.35220141     0.05600
C842        C  0.67083237  0.54509979  0.37690325    -0.03000
Br843      Br  0.61763690  0.54844577  0.39337742    -0.02700
H844        H  0.71233128  0.55529406  0.40892841     0.09500
H845        H  0.71141464  0.53138786  0.32301250     0.07500
Br846      Br  0.80385414  0.53485717  0.33937422    -0.03100
C847        C  0.77999883  0.34653978  0.40084378    -0.09700
C848        C  0.77061441  0.35310473  0.42459206     0.06500
C849        C  0.72208016  0.31920869  0.43393158    -0.03500
C850        C  0.68271014  0.28526012  0.41894034    -0.07900
C851        C  0.69009782  0.28524038  0.39436783     0.05600
C852        C  0.74018023  0.31410258  0.38564467    -0.03000
Br853      Br  0.75467350  0.31772795  0.35275839    -0.02700
H854        H  0.81735884  0.37197207  0.39325792     0.09500
H855        H  0.64455483  0.26237203  0.42622201     0.07500
Br856      Br  0.70536141  0.32376660  0.46591233    -0.03100
C857        C  0.20688087  0.81802841  0.42335089    -0.09700
C858        C  0.17109971  0.82761609  0.43407369     0.06500
C859        C  0.17201698  0.87283064  0.42852175    -0.03500
C860        C  0.20671368  0.90645001  0.41191571    -0.07900
C861        C  0.24147725  0.89635609  0.40041993     0.05600
C862        C  0.24208702  0.85202058  0.40670882    -0.03000
Br863      Br  0.29137986  0.83709529  0.39415889    -0.02700
H864        H  0.20620422  0.78305445  0.42726919     0.09500
H865        H  0.20657432  0.94103583  0.40804392     0.07500
Br866      Br  0.12708916  0.89086081  0.44354196    -0.03100
C867        C  0.19715962  0.70166357  0.51381274    -0.09700
C868        C  0.14572243  0.67482616  0.52082181     0.06500
C869        C  0.13003127  0.69153417  0.54035928    -0.03500
C870        C  0.16503802  0.73678261  0.55139897    -0.07900
C871        C  0.21567674  0.76509355  0.54345898     0.05600
C872        C  0.23236075  0.74639248  0.52513630    -0.03000
Br873      Br  0.30107220  0.78340285  0.51313807    -0.02700
H874        H  0.20922090  0.68954148  0.49850910     0.09500
H875        H  0.15235199  0.75073657  0.56578358     0.07500
Br876      Br  0.06016251  0.65808329  0.55073096    -0.03100
C877        C  0.06148679  0.30142299  0.83711623    -0.09700
C878        C  0.02840213  0.30481930  0.85310379     0.06500
C879        C  0.97901362  0.29251323  0.84559485    -0.03500
C880        C  0.96533283  0.28076594  0.82228115    -0.07900
C881        C  0.00061793  0.28368285  0.80573200     0.05600
C882        C  0.04776807  0.29045960  0.81351660    -0.03000
Br883      Br  0.09515095  0.28627627  0.79277149    -0.02700
H884        H  0.09875826  0.30921886  0.84277982     0.09500
H885        H  0.92890138  0.27542175  0.81670584     0.07500
Br886      Br  0.93105832  0.30036540  0.86448398    -0.03100
C887        C  0.74322667  0.45206678  0.71995796    -0.09700
C888        C  0.76885138  0.43146009  0.73161040     0.06500
C889        C  0.76261616  0.42504331  0.75643817    -0.03500
C890        C  0.72458929  0.42969570  0.76806628    -0.07900
C891        C  0.69366607  0.44296689  0.75567777     0.05600
C892        C  0.70672859  0.45889243  0.73192769    -0.03000
Br893      Br  0.67346685  0.48764197  0.71466611    -0.02700
H894        H  0.74888908  0.45963484  0.70131038     0.09500
H895        H  0.71658726  0.41890956  0.78636671     0.07500
Br896      Br  0.80325372  0.40747347  0.77562399    -0.03100
C897        C  0.19940674  0.33405089  0.75080416    -0.09700
C898        C  0.23262607  0.37718377  0.76412865     0.06500
C899        C  0.23474140  0.42352403  0.75902508    -0.03500
C900        C  0.20354542  0.42537267  0.74126264    -0.07900
C901        C  0.16975574  0.38168085  0.72843977     0.05600
C902        C  0.16823808  0.33586048  0.73338136    -0.03000
Br903      Br  0.12352272  0.27398349  0.71691887    -0.02700
H904        H  0.19728669  0.29813286  0.75401917     0.09500
H905        H  0.20399469  0.46052906  0.73820721     0.07500
Br906      Br  0.27957527  0.48558581  0.77524495    -0.03100
C907        C  0.72655317  0.23190230  0.78920110    -0.09700
C908        C  0.74578497  0.21132292  0.77304209     0.06500
C909        C  0.71956810  0.15852875  0.76929279    -0.03500
C910        C  0.67522181  0.12700964  0.78211967    -0.07900
C911        C  0.65752669  0.14739379  0.79911457     0.05600
C912        C  0.68323186  0.20022724  0.80257293    -0.03000
Br913      Br  0.66145478  0.23046215  0.82576595    -0.02700
H914        H  0.74656799  0.27261250  0.79213575     0.09500
H915        H  0.65626398  0.08618651  0.77983201     0.07500
Br916      Br  0.74272945  0.12777811  0.74705335    -0.03100
C917        C  0.86786796  0.42647867  0.58957945    -0.09700
C918        C  0.90674198  0.46558630  0.60319653     0.06500
C919        C  0.94499287  0.50924638  0.59145850    -0.03500
C920        C  0.94503518  0.51250939  0.56697356    -0.07900
C921        C  0.90750214  0.47298714  0.55301371     0.05600
C922        C  0.86793182  0.42977197  0.56478172    -0.03000
Br923      Br  0.81490041  0.37280868  0.54812384    -0.02700
H924        H  0.83850960  0.39222317  0.59816850     0.09500
H925        H  0.97518268  0.54684751  0.55881474     0.07500
Br926      Br  0.99803946  0.56677409  0.60801358    -0.03100
C927        C  0.14728589  0.51536261  0.61487952    -0.09700
C928        C  0.15562761  0.52296464  0.63916807     0.06500
C929        C  0.20254362  0.53201227  0.64851395    -0.03500
C930        C  0.23634526  0.52603353  0.63433833    -0.07900
C931        C  0.22507302  0.51276471  0.61077919     0.05600
C932        C  0.18198743  0.51048870  0.60061736    -0.03000
Br933      Br  0.16777258  0.49763223  0.56780726    -0.02700
H934        H  0.11203002  0.50927507  0.60726576     0.09500
H935        H  0.27073968  0.52990794  0.64195622     0.07500
Br936      Br  0.22214056  0.55078103  0.68062959    -0.03100
loop_ 
_geom_bond_atom_site_label_1 
_geom_bond_atom_site_label_2 
_geom_bond_distance 
_geom_bond_site_symmetry_2 
_ccdc_geom_bond_type 
O1           Mg3   2.105       .  S
O1           Mg9   2.163       .  S
O1           C36   1.234       .  S
C2           O15   1.238       .  S
C2           O39   1.274   1_655  A
C2           H41   1.086       .  S
Mg3          O32   2.102       .  S
Mg3          O47   2.257       .  S
Mg3          O43   2.187       .  S
Mg3          O14   2.316       .  S
O4          Mg46   2.109       .  S
O4          Mg29   2.135       .  S
O4           C25   1.240       .  S
O5           C36   1.266       .  A
O5          Mg29   2.283   1_655  S
C6            O8   1.283       .  A
C6           O20   1.278       .  A
C6          C918   1.499       .  S
O7           C35   1.270       .  A
O7           Mg9   2.296       .  S
O8          Mg40   2.331       .  S
Mg9          O15   2.104       .  S
Mg9          O23   2.250       .  S
Mg9          O11   2.296       .  S
C10          O48   1.270       .  A
C10          O16   1.263       .  A
C10         C928   1.476       .  S
O11          C18   1.276       .  A
H12          C25   1.084       .  S
C13          O28   1.280       .  A
C13          H38   1.083       .  S
C13          O27   1.270       .  A
O14          C37   1.274       .  A
O15         Mg29   2.135   1_655  S
O16         Mg46   2.266       .  S
C17          O30   1.272       .  A
C17          O22   1.255       .  A
C17         C901   1.481       .  S
C18          O45   1.264   1_655  A
C18         C881   1.472   1_655  S
Mg19         O26   2.125   1_455  S
Mg19         O20   2.315   1_455  S
Mg19         O21   2.344       .  S
Mg19         O48   2.301       .  S
Mg19         O27   2.219   1_455  S
O21          C25   1.278       .  A
O22         Mg29   2.236       .  S
O23          C42   1.270       .  A
O24          C44   1.290       .  A
O24         Mg40   2.460       .  S
O26         Mg40   2.135       .  S
O26          C37   1.238       .  S
O27         Mg46   2.287   1_655  S
O28         Mg40   2.356       .  S
Mg29         O45   2.217       .  S
O30         Mg46   2.361       .  S
H31          C36   1.083       .  S
O32         Mg40   2.159       .  S
O32          C35   1.237       .  S
H33          C35   1.080       .  S
H34          C37   1.081       .  S
O39         Mg46   2.321       .  S
C42          O47   1.268       .  A
C42         C908   1.461       .  S
O43          C44   1.256       .  A
C44         C888   1.498       .  S
O49         Mg51   2.090       .  S
O49         Mg57   2.128       .  S
O49          C84   1.233       .  S
C50          O63   1.237       .  S
C50          O87   1.274   1_655  A
C50          H89   1.082       .  S
Mg51         O80   2.136       .  S
Mg51         O95   2.286       .  S
Mg51         O91   2.155       .  S
Mg51         O62   2.284       .  S
O52         Mg94   2.109       .  S
O52         Mg77   2.147       .  S
O52          C73   1.242       .  S
O53          C84   1.264   1_455  A
O53         Mg77   2.275       .  S
C54          O56   1.285       .  A
C54          O68   1.276       .  A
C54         C921   1.511       .  S
O55          C83   1.272       .  A
O55         Mg57   2.293       .  S
O56         Mg88   2.352       .  S
Mg57         O63   2.116       .  S
Mg57         O71   2.256       .  S
Mg57         O59   2.321       .  S
C58          O96   1.265       .  A
C58          O64   1.259       .  A
C58         C868   1.459       .  S
O59          C66   1.277       .  A
H60          C73   1.084       .  S
C61          O76   1.277       .  A
C61          H86   1.083       .  S
C61          O75   1.266       .  A
O62          C85   1.271       .  A
O63         Mg77   2.135   1_655  S
O64         Mg94   2.258       .  S
C65          O78   1.269       .  A
C65          O70   1.259       .  A
C65         C858   1.476       .  S
C66          O93   1.269   1_655  A
C66         C828   1.484   1_655  S
Mg67         O74   2.118   1_455  S
Mg67         O68   2.296   1_455  S
Mg67         O69   2.361       .  S
Mg67         O96   2.286       .  S
Mg67         O75   2.220   1_455  S
O69          C73   1.282       .  A
O70         Mg77   2.253       .  S
O71          C90   1.272       .  A
O72          C92   1.294       .  A
O72         Mg88   2.447       .  S
O74         Mg88   2.170       .  S
O74          C85   1.239       .  S
O75         Mg94   2.278   1_655  S
O76         Mg88   2.355       .  S
Mg77         O93   2.224       .  S
O78         Mg94   2.327       .  S
H79          C84   1.081       .  S
O80         Mg88   2.152       .  S
O80          C83   1.240       .  S
H81          C83   1.081       .  S
H82          C85   1.082       .  S
O87         Mg94   2.325       .  S
C90          O95   1.271       .  A
C90         C838   1.460       .  S
O91          C92   1.261       .  A
C92         C848   1.493       .  S
O97         Mg99   2.081       .  S
O97        Mg105   2.128       .  S
O97         C132   1.234       .  S
C98         O111   1.239       .  S
C98         O135   1.276       .  A
C98         H137   1.081       .  S
Mg99        O128   2.131       .  S
Mg99        O143   2.302       .  S
Mg99        O139   2.143       .  S
Mg99        O110   2.297       .  S
O100       Mg142   2.101   1_545  S
O100       Mg125   2.147       .  S
O100        C121   1.239   1_545  S
O101        C132   1.265       .  A
O101       Mg125   2.281       .  S
C102        O104   1.287       .  A
C102        O116   1.282       .  A
C102        C791   1.507       .  S
O103        C131   1.272       .  A
O103       Mg105   2.296       .  S
O104       Mg136   2.357       .  S
Mg105       O111   2.104       .  S
Mg105       O119   2.249       .  S
Mg105       O107   2.329       .  S
C106        O144   1.270       .  A
C106        O112   1.262       .  A
C106        C821   1.469       .  S
O107        C114   1.278       .  A
H108        C121   1.084       .  S
C109        O123   1.239       .  S
C109        O124   1.278       .  A
C109        H134   1.081       .  S
O110        C133   1.273       .  A
O111       Mg125   2.113       .  S
O112       Mg142   2.259       .  S
C113        O126   1.270       .  A
C113        O118   1.252       .  A
C113        C808   1.490       .  S
C114        O141   1.260       .  A
C114        C771   1.473       .  S
Mg115       O122   2.148       .  S
Mg115       O123   2.145       .  S
Mg115       O116   2.351       .  S
Mg115       O117   2.354   1_545  S
Mg115       O144   2.303   1_545  S
O117        C121   1.279       .  A
O118       Mg125   2.226   1_565  S
O119        C138   1.272       .  A
O120        C140   1.296       .  A
O120       Mg136   2.465       .  S
O122       Mg136   2.156       .  S
O122        C133   1.240       .  S
O123       Mg142   2.206   1_545  S
O124       Mg136   2.342       .  S
Mg125       O141   2.204       .  S
O126       Mg142   2.376       .  S
H127        C132   1.080       .  S
O128       Mg136   2.153       .  S
O128        C131   1.239       .  S
H129        C131   1.083       .  S
H130        C133   1.082       .  S
O135       Mg142   2.334   1_545  S
C138        O143   1.273       .  A
C138        C781   1.473       .  S
O139        C140   1.260       .  A
C140        C798   1.504       .  S
O145       Mg147   2.106       .  S
O145       Mg153   2.158       .  S
O145        C180   1.234       .  S
C146        O159   1.240       .  S
C146        O183   1.277       .  A
C146        H185   1.085       .  S
Mg147       O176   2.104       .  S
Mg147       O191   2.323       .  S
Mg147       O187   2.189       .  S
Mg147       O158   2.338       .  S
O148        C169   1.266       .  A
O148       Mg190   2.198       .  S
O148       Mg173   2.207       .  S
O149        C180   1.266       .  A
O149       Mg173   2.280       .  S
C150        O152   1.288       .  A
C150        O164   1.275       .  A
C150        C788   1.515       .  S
O151        C179   1.270       .  A
O151       Mg153   2.302       .  S
O152       Mg184   2.380       .  S
Mg153       O159   2.103       .  S
Mg153       O167   2.237       .  S
Mg153       O155   2.319       .  S
C154        O192   1.271       .  A
C154        O160   1.264       .  A
C154        C751   1.486       .  S
O155        C162   1.275       .  A
H156        C169   1.082   1_565  S
C157        O172   1.280       .  A
C157        H182   1.083       .  S
C157        O171   1.271       .  A
O158        C181   1.279       .  A
O159       Mg173   2.134       .  S
O160       Mg190   2.268   1_565  S
C161        O174   1.268       .  A
C161        O166   1.254       .  A
C161        C861   1.486       .  S
C162        O189   1.264       .  A
C162        C758   1.477       .  S
Mg163       O170   2.152       .  S
Mg163       O164   2.310       .  S
Mg163       O165   2.346       .  S
Mg163       O192   2.313   1_545  S
Mg163       O171   2.228       .  S
O165        C169   1.275       .  A
O166       Mg173   2.231   1_565  S
O167        C186   1.270       .  A
O168        C188   1.291       .  A
O168       Mg184   2.467       .  S
O170       Mg184   2.136       .  S
O170        C181   1.242       .  S
O171       Mg190   2.259       .  S
O172       Mg184   2.350       .  S
Mg173       O189   2.182       .  S
O174       Mg190   2.348   1_565  S
H175        C180   1.081       .  S
O176       Mg184   2.193       .  S
O176        C179   1.236       .  S
H177        C179   1.081       .  S
H178        C181   1.080       .  S
O183       Mg190   2.328       .  S
C186        O191   1.276       .  A
C186        C741   1.472       .  S
O187        C188   1.257       .  A
C188        C851   1.497       .  S
O193       Mg195   2.091       .  S
O193       Mg201   2.137       .  S
O193        C228   1.233       .  S
C194        O207   1.241       .  S
C194        O231   1.279       .  A
C194        H233   1.083       .  S
Mg195       O224   2.142       .  S
Mg195       O239   2.290       .  S
Mg195       O235   2.146       .  S
Mg195       O206   2.287       .  S
O196        C217   1.269       .  A
O196       Mg238   2.198       .  S
O196       Mg221   2.245       .  S
O197        C228   1.264       .  A
O197       Mg221   2.276       .  S
C198        O200   1.288       .  A
C198        O212   1.280       .  A
C198        C698   1.518       .  S
O199        C227   1.272       .  A
O199       Mg201   2.295       .  S
O200       Mg232   2.375       .  S
Mg201       O207   2.099       .  S
Mg201       O215   2.248       .  S
Mg201       O203   2.330       .  S
C202        O240   1.271       .  A
C202        O208   1.268       .  A
C202        C841   1.478       .  S
O203        C210   1.278       .  A
H204        C217   1.082       .  S
C205        O220   1.275       .  A
C205        H230   1.082       .  S
C205        O219   1.266       .  A
O206        C229   1.272       .  A
O207       Mg221   2.127       .  S
O208       Mg238   2.276       .  S
C209        O222   1.267       .  A
C209        O214   1.250       .  A
C209        C721   1.482       .  S
C210        O237   1.268       .  A
C210        C728   1.480       .  S
Mg211       O218   2.135       .  S
Mg211       O212   2.324       .  S
Mg211       O213   2.363       .  S
Mg211       O240   2.292       .  S
Mg211       O219   2.215       .  S
O213        C217   1.280       .  A
O214       Mg221   2.221       .  S
O215        C234   1.271       .  A
O216        C236   1.294       .  A
O216       Mg232   2.448       .  S
O218       Mg232   2.172       .  S
O218        C229   1.240       .  S
O219       Mg238   2.251       .  S
O220       Mg232   2.342       .  S
Mg221       O237   2.216       .  S
O222       Mg238   2.359       .  S
H223        C228   1.080       .  S
O224       Mg232   2.166       .  S
O224        C227   1.238       .  S
H225        C227   1.080       .  S
H226        C229   1.081       .  S
O231       Mg238   2.342       .  S
C234        O239   1.272       .  A
C234        C818   1.461       .  S
O235        C236   1.260       .  A
C236        C711   1.503       .  S
O241       Mg243   2.100       .  S
O241       Mg249   2.145       .  S
O241        C276   1.234       .  S
C242        O255   1.238       .  S
C242        O279   1.274       .  A
C242        H281   1.084       .  S
Mg243       O272   2.108       .  S
Mg243       O287   2.285       .  S
Mg243       O283   2.156       .  S
Mg243       O254   2.315       .  S
O244       Mg286   2.109       .  S
O244       Mg269   2.147       .  S
O244        C265   1.237       .  S
O245        C276   1.266       .  A
O245       Mg269   2.280       .  S
C246        O248   1.285       .  A
C246        O260   1.277       .  A
C246        C701   1.509       .  S
O247        C275   1.271       .  A
O247       Mg249   2.301       .  S
O248       Mg280   2.366       .  S
Mg249       O255   2.109       .  S
Mg249       O263   2.252       .  S
Mg249       O251   2.318       .  S
C250        O288   1.268       .  A
C250        O256   1.267       .  A
C250        C738   1.467       .  S
O251        C258   1.275       .  A
H252        C265   1.085       .  S
C253        O267   1.241       .  S
C253        O268   1.280       .  A
C253        H278   1.081       .  S
O254        C277   1.275       .  A
O255       Mg269   2.132       .  S
O256       Mg286   2.291       .  S
C257        O270   1.272       .  A
C257        O262   1.257       .  A
C257        C691   1.481       .  S
C258        O285   1.267       .  A
C258        C671   1.483       .  S
Mg259       O266   2.141       .  S
Mg259       O267   2.147       .  S
Mg259       O260   2.320       .  S
Mg259       O261   2.335       .  S
Mg259       O288   2.272       .  S
O261        C265   1.275       .  A
O262       Mg269   2.244       .  S
O263        C282   1.270       .  A
O264        C284   1.293       .  A
O264       Mg280   2.458       .  S
O266       Mg280   2.142       .  S
O266        C277   1.240       .  S
O267       Mg286   2.208       .  S
O268       Mg280   2.344       .  S
Mg269       O285   2.214       .  S
O270       Mg286   2.355       .  S
H271        C276   1.081       .  S
O272       Mg280   2.165       .  S
O272        C275   1.237       .  S
H273        C275   1.080       .  S
H274        C277   1.081       .  S
O279       Mg286   2.324       .  S
C282        O287   1.269       .  A
C282        C931   1.461       .  S
O283        C284   1.256       .  A
C284        C681   1.491       .  S
O289       Mg291   2.092       .  S
O289       Mg297   2.131       .  S
O289        C324   1.233       .  S
C290        O303   1.240       .  S
C290        O327   1.277       .  A
C290        H329   1.083       .  S
Mg291       O320   2.124       .  S
Mg291       O335   2.307       .  S
Mg291       O331   2.165       .  S
Mg291       O302   2.307       .  S
O292        C313   1.268   1_455  A
O292       Mg334   2.205   1_455  S
O292       Mg317   2.236       .  S
O293        C324   1.264       .  A
O293       Mg317   2.283       .  S
C294        O296   1.287       .  A
C294        O308   1.278       .  A
C294        C638   1.517       .  S
O295        C323   1.274       .  A
O295       Mg297   2.304       .  S
O296       Mg328   2.376   1_554  S
Mg297       O303   2.122       .  S
Mg297       O311   2.266       .  S
Mg297       O299   2.360       .  S
C298        O336   1.269       .  A
C298        O304   1.259   1_554  A
C298        C778   1.465       .  S
O299        C306   1.281       .  A
H300        C313   1.085       .  S
C301        O316   1.279       .  A
C301        H326   1.077   1_556  S
C301        O315   1.269       .  A
O302        C325   1.275       .  A
O303       Mg317   2.119       .  S
O304       Mg334   2.258       .  S
C305        O318   1.266       .  A
C305        O310   1.255       .  A
C305        C661   1.498       .  S
C306        O333   1.260       .  A
C306        C878   1.470       .  S
Mg307       O314   2.142       .  S
Mg307       O308   2.314   1_556  S
Mg307       O309   2.368   1_455  S
Mg307       O336   2.312   1_456  S
Mg307       O315   2.227       .  S
O309        C313   1.280       .  A
O310       Mg317   2.227   1_655  S
O311        C330   1.273       .  A
O312        C332   1.294       .  A
O312       Mg328   2.449       .  S
O314       Mg328   2.161       .  S
O314        C325   1.241       .  S
O315       Mg334   2.278   1_455  S
O316       Mg328   2.350       .  S
Mg317       O333   2.195       .  S
O318       Mg334   2.357       .  S
H319        C324   1.080       .  S
O320       Mg328   2.172       .  S
O320        C323   1.240       .  S
H321        C323   1.080       .  S
H322        C325   1.081       .  S
O327       Mg334   2.338   1_455  S
C330        O335   1.274       .  A
C330        C628   1.472       .  S
O331        C332   1.262       .  A
C332        C648   1.488       .  S
O337       Mg339   2.087       .  S
O337       Mg345   2.129       .  S
O337        C372   1.233       .  S
C338        O351   1.241       .  S
C338        O375   1.279       .  A
C338        H377   1.086       .  S
Mg339       O368   2.132       .  S
Mg339       O383   2.306       .  S
Mg339       O379   2.146       .  S
Mg339       O350   2.293       .  S
O340        C361   1.265   1_455  A
O340       Mg382   2.191   1_455  S
O340       Mg365   2.247       .  S
O341        C372   1.264       .  A
O341       Mg365   2.275       .  S
C342        O344   1.287       .  A
C342        O356   1.278       .  A
C342        C641   1.509       .  S
O343        C371   1.271       .  A
O343       Mg345   2.296       .  S
O344       Mg376   2.372       .  S
Mg345       O351   2.103       .  S
Mg345       O359   2.252       .  S
Mg345       O347   2.327       .  S
C346        O384   1.271       .  A
C346        O352   1.269       .  A
C346        C621   1.469       .  S
O347        C354   1.278       .  A
H348        C361   1.085       .  S
C349        O363   1.240       .  S
C349        O364   1.277       .  A
C349        H374   1.081       .  S
O350        C373   1.273       .  A
O351       Mg365   2.126       .  S
O352       Mg382   2.291       .  S
C353        O366   1.267       .  A
C353        O358   1.250       .  A
C353        C718   1.483       .  S
C354        O381   1.267       .  A
C354        C831   1.481       .  S
Mg355       O362   2.147       .  S
Mg355       O363   2.148       .  S
Mg355       O356   2.318       .  S
Mg355       O357   2.353   1_455  S
Mg355       O384   2.277   1_455  S
O357        C361   1.275       .  A
O358       Mg365   2.220   1_655  S
O359        C378   1.272       .  A
O360        C380   1.295       .  A
O360       Mg376   2.454       .  S
O362       Mg376   2.165       .  S
O362        C373   1.240       .  S
O363       Mg382   2.175   1_455  S
O364       Mg376   2.333       .  S
Mg365       O381   2.216       .  S
O366       Mg382   2.365       .  S
H367        C372   1.081       .  S
O368       Mg376   2.157       .  S
O368        C371   1.237       .  S
H369        C371   1.082       .  S
H370        C373   1.082       .  S
O375       Mg382   2.346   1_455  S
C378        O383   1.273       .  A
C378        C748   1.464       .  S
O379        C380   1.260       .  A
C380        C708   1.500       .  S
O385       Mg387   2.101       .  S
O385       Mg393   2.160       .  S
O385        C420   1.233       .  S
C386        O399   1.238       .  S
C386        O423   1.275   1_565  A
C386        H425   1.087       .  S
Mg387       O416   2.098       .  S
Mg387       O431   2.305       .  S
Mg387       O427   2.191       .  S
Mg387       O398   2.333       .  S
O388        C409   1.268       .  A
O388       Mg430   2.192       .  S
O388       Mg413   2.208       .  S
O389        C420   1.264       .  A
O389       Mg413   2.274   1_565  S
C390        O392   1.283       .  A
C390        O404   1.275       .  A
C390        C611   1.506       .  S
O391        C419   1.269       .  A
O391       Mg393   2.295       .  S
O392       Mg424   2.351       .  S
Mg393       O399   2.112       .  S
Mg393       O407   2.245       .  S
Mg393       O395   2.305       .  S
C394        O432   1.267       .  A
C394        O400   1.262       .  A
C394        C911   1.457       .  S
O395        C402   1.277   1_565  A
H396        C409   1.081       .  S
C397        O412   1.281       .  A
C397        H422   1.082       .  S
C397        O411   1.271       .  A
O398        C421   1.277       .  A
O399       Mg413   2.146   1_565  S
O400       Mg430   2.260       .  S
C401        O414   1.272       .  A
C401        O406   1.257       .  A
C401        C658   1.482       .  S
C402        O429   1.262       .  A
C402        C768   1.470       .  S
Mg403       O410   2.132   1_545  S
Mg403       O404   2.312   1_545  S
Mg403       O405   2.351       .  S
Mg403       O432   2.278       .  S
Mg403       O411   2.238   1_545  S
O405        C409   1.277       .  A
O406       Mg413   2.251       .  S
O407        C426   1.271       .  A
O408        C428   1.288       .  A
O408       Mg424   2.449       .  S
O410       Mg424   2.132       .  S
O410        C421   1.240       .  S
O411       Mg430   2.282   1_565  S
O412       Mg424   2.360       .  S
Mg413       O429   2.181       .  S
O414       Mg430   2.356       .  S
H415        C420   1.081       .  S
O416       Mg424   2.170       .  S
O416        C419   1.235       .  S
H417        C419   1.081       .  S
H418        C421   1.082       .  S
O423       Mg430   2.322       .  S
C426        O431   1.274       .  A
C426        C601   1.469       .  S
O427        C428   1.257       .  A
C428        C651   1.493       .  S
O433       Mg435   2.088       .  S
O433       Mg441   2.138       .  S
O433        C468   1.233       .  S
C434        O447   1.240       .  S
C434        O471   1.278   1_565  A
C434        H473   1.081       .  S
Mg435       O464   2.126       .  S
Mg435       O479   2.257       .  S
Mg435       O475   2.166       .  S
Mg435       O446   2.289       .  S
O436        C457   1.268       .  A
O436       Mg478   2.197       .  S
O436       Mg461   2.237       .  S
O437        C468   1.264   1_545  A
O437       Mg461   2.279       .  S
C438        O440   1.283       .  A
C438        O452   1.279       .  A
C438        C608   1.495       .  S
O439        C467   1.273       .  A
O439       Mg441   2.293       .  S
O440       Mg472   2.332       .  S
Mg441       O447   2.107       .  S
Mg441       O455   2.249       .  S
Mg441       O443   2.330       .  S
C442        O480   1.270       .  A
C442        O448   1.263       .  A
C442        C588   1.462       .  S
O443        C450   1.278   1_565  A
H444        C457   1.085       .  S
C445        O460   1.278       .  A
C445        H470   1.082       .  S
C445        O459   1.268       .  A
O446        C469   1.272       .  A
O447       Mg461   2.121   1_565  S
O448       Mg478   2.275       .  S
C449        O462   1.268       .  A
C449        O454   1.253       .  A
C449        C688   1.492       .  S
C450        O477   1.265       .  A
C450        C761   1.473       .  S
Mg451       O458   2.129   1_545  S
Mg451       O452   2.323   1_545  S
Mg451       O453   2.367       .  S
Mg451       O480   2.288       .  S
Mg451       O459   2.223   1_545  S
O453        C457   1.279       .  A
O454       Mg461   2.222       .  S
O455        C474   1.271       .  A
O456        C476   1.294       .  A
O456       Mg472   2.449       .  S
O458       Mg472   2.162       .  S
O458        C469   1.239       .  S
O459       Mg478   2.273   1_565  S
O460       Mg472   2.350       .  S
Mg461       O477   2.208       .  S
O462       Mg478   2.357       .  S
H463        C468   1.081       .  S
O464       Mg472   2.140       .  S
O464        C467   1.240       .  S
H465        C467   1.083       .  S
H466        C469   1.080       .  S
O471       Mg478   2.339       .  S
C474        O479   1.268       .  A
C474        C871   1.459       .  S
O475        C476   1.260       .  A
C476        C678   1.498       .  S
O481       Mg483   2.081       .  S
O481       Mg489   2.132       .  S
O481        C516   1.232       .  S
C482        O495   1.239       .  S
C482        O519   1.276       .  A
C482        H521   1.086       .  S
Mg483       O512   2.132       .  S
Mg483       O527   2.289       .  S
Mg483       O523   2.141       .  S
Mg483       O494   2.287       .  S
O484        C505   1.268       .  A
O484       Mg526   2.202       .  S
O484       Mg509   2.251       .  S
O485        C516   1.263       .  A
O485       Mg509   2.270       .  S
C486        O488   1.286       .  A
C486        O500   1.274       .  A
C486        C578   1.512       .  S
O487        C515   1.270       .  A
O487       Mg489   2.287       .  S
O488       Mg520   2.365   1_556  S
Mg489       O495   2.115       .  S
Mg489       O503   2.261       .  S
Mg489       O491   2.329       .  S
C490        O528   1.268       .  A
C490        O496   1.268   1_556  A
C490        C598   1.464       .  S
O491        C498   1.278       .  A
H492        C505   1.081       .  S
C493        O508   1.278       .  A
C493        H518   1.083       .  S
C493        O507   1.268       .  A
O494        C517   1.272       .  A
O495       Mg509   2.136       .  S
O496       Mg526   2.294       .  S
C497        O510   1.269       .  A
C497        O502   1.255       .  A
C497        C811   1.486       .  S
C498        O525   1.269       .  A
C498        C731   1.482       .  S
Mg499       O506   2.134   1_556  S
Mg499       O500   2.297       .  S
Mg499       O501   2.361   1_556  S
Mg499       O528   2.273       .  S
Mg499       O507   2.220       .  S
O501        C505   1.279       .  A
O502       Mg509   2.233       .  S
O503        C522   1.274       .  A
O504        C524   1.295       .  A
O504       Mg520   2.457       .  S
O506       Mg520   2.179       .  S
O506        C517   1.240       .  S
O507       Mg526   2.271   1_556  S
O508       Mg520   2.353   1_556  S
Mg509       O525   2.210       .  S
O510       Mg526   2.352       .  S
H511        C516   1.079       .  S
O512       Mg520   2.145       .  S
O512        C515   1.238       .  S
H513        C515   1.081       .  S
H514        C517   1.081       .  S
O519       Mg526   2.337       .  S
C522        O527   1.272       .  A
C522        C618   1.463       .  S
O523        C524   1.259       .  A
C524        C801   1.501       .  S
O529       Mg531   2.095       .  S
O529       Mg537   2.137       .  S
O529        C564   1.233       .  S
C530        O543   1.240       .  S
C530        O567   1.278       .  A
C530        H569   1.086       .  S
Mg531       O560   2.138       .  S
Mg531       O575   2.293       .  S
Mg531       O571   2.185       .  S
Mg531       O542   2.292       .  S
O532        C553   1.267       .  A
O532       Mg574   2.204       .  S
O532       Mg557   2.242       .  S
O533        C564   1.264       .  A
O533       Mg557   2.280       .  S
C534        O536   1.283       .  A
C534        O548   1.280       .  A
C534        C581   1.500       .  S
O535        C563   1.272       .  A
O535       Mg537   2.292       .  S
O536       Mg568   2.337       .  S
Mg537       O543   2.120       .  S
Mg537       O551   2.258       .  S
Mg537       O539   2.341       .  S
C538        O576   1.273       .  A
C538        O544   1.263       .  A
C538        C631   1.474       .  S
O539        C546   1.280       .  A
H540        C553   1.082       .  S
C541        O556   1.277       .  A
C541        H566   1.082       .  S
C541        O555   1.267       .  A
O542        C565   1.273       .  A
O543       Mg557   2.123       .  S
O544       Mg574   2.269       .  S
C545        O558   1.266       .  A
C545        O550   1.254       .  A
C545        C898   1.495       .  S
C546        O573   1.265       .  A
C546        C668   1.476       .  S
Mg547       O554   2.151       .  S
Mg547       O548   2.323       .  S
Mg547       O549   2.366       .  S
Mg547       O576   2.319       .  S
Mg547       O555   2.224       .  S
O549        C553   1.279       .  A
O550       Mg557   2.220       .  S
O551        C570   1.274       .  A
O552        C572   1.293       .  A
O552       Mg568   2.436       .  S
O554       Mg568   2.179       .  S
O554        C565   1.240       .  S
O555       Mg574   2.271       .  S
O556       Mg568   2.347       .  S
Mg557       O573   2.208       .  S
O558       Mg574   2.361       .  S
H559        C564   1.081       .  S
O560       Mg568   2.148       .  S
O560        C563   1.239       .  S
H561        C563   1.081       .  S
H562        C565   1.081       .  S
O567       Mg574   2.343       .  S
C570        O575   1.273       .  A
C570        C591   1.466       .  S
O571        C572   1.264       .  A
C572        C891   1.493       .  S
C577        H584   1.083       .  S
C577        C578   1.411       .  A
C577        C582   1.418       .  A
C578        C579   1.424       .  A
C579        C580   1.401       .  A
C579       Br586   1.923       .  S
C580        H585   1.084       .  S
C580        C581   1.400       .  A
C581        C582   1.417       .  A
C582       Br583   1.916       .  S
C587        H594   1.084       .  S
C587        C588   1.401       .  A
C587        C592   1.396       .  A
C588        C589   1.408       .  A
C589        C590   1.397       .  A
C589       Br596   1.919       .  S
C590        H595   1.084       .  S
C590        C591   1.402       .  A
C591        C592   1.408       .  A
C592       Br593   1.918       .  S
C597        H604   1.083       .  S
C597        C598   1.400       .  A
C597        C602   1.394       .  A
C598        C599   1.406       .  A
C599        C600   1.400       .  A
C599       Br606   1.918       .  S
C600        H605   1.084       .  S
C600        C601   1.405       .  A
C601        C602   1.407       .  A
C602       Br603   1.919       .  S
C607        H614   1.084       .  S
C607        C608   1.400       .  A
C607        C612   1.404       .  A
C608        C609   1.415       .  A
C609        C610   1.415       .  A
C609       Br616   1.917       .  S
C610        H615   1.083       .  S
C610        C611   1.408       .  A
C611        C612   1.421       .  A
C612       Br613   1.920       .  S
C617        H624   1.084       .  S
C617        C618   1.399       .  A
C617        C622   1.397       .  A
C618        C619   1.406       .  A
C619        C620   1.396       .  A
C619       Br626   1.918       .  S
C620        H625   1.084       .  S
C620        C621   1.403       .  A
C621        C622   1.411       .  A
C622       Br623   1.919       .  S
C627        H634   1.084       .  S
C627        C628   1.403       .  A
C627        C632   1.401       .  A
C628        C629   1.406       .  A
C629        C630   1.398       .  A
C629       Br636   1.920       .  S
C630        H635   1.084       .  S
C630        C631   1.405       .  A
C631        C632   1.410       .  A
C632       Br633   1.920       .  S
C637        H644   1.083       .  S
C637        C638   1.411       .  A
C637        C642   1.404       .  A
C638        C639   1.418       .  A
C639        C640   1.422       .  A
C639       Br646   1.916       .  S
C640        H645   1.083       .  S
C640        C641   1.413       .  A
C641        C642   1.412       .  A
C642       Br643   1.921       .  S
C647        H654   1.083       .  S
C647        C648   1.394       .  A
C647        C652   1.404       .  A
C648        C649   1.425       .  A
C649        C650   1.406       .  A
C649       Br656   1.922       .  S
C650        H655   1.083       .  S
C650        C651   1.396       .  A
C651        C652   1.425       .  A
C652       Br653   1.919       .  S
C657        H664   1.083       .  S
C657        C658   1.406       .  A
C657        C662   1.411       .  A
C658        C659   1.407       .  A
C659        C660   1.398       .  A
C659       Br666   1.921       .  S
C660        H665   1.083       .  S
C660        C661   1.410       .  A
C661        C662   1.417       .  A
C662       Br663   1.919       .  S
C667        H674   1.084       .  S
C667        C668   1.409       .  A
C667        C672   1.394       .  A
C668        C669   1.405       .  A
C669        C670   1.395       .  A
C669       Br676   1.921       .  S
C670        H675   1.084       .  S
C670        C671   1.412       .  A
C671        C672   1.413       .  A
C672       Br673   1.924       .  S
C677        H684   1.083       .  S
C677        C678   1.396       .  A
C677        C682   1.404       .  A
C678        C679   1.431       .  A
C679        C680   1.405       .  A
C679       Br686   1.924       .  S
C680        H685   1.083       .  S
C680        C681   1.393       .  A
C681        C682   1.427       .  A
C682       Br683   1.924       .  S
C687        H694   1.083       .  S
C687        C688   1.408       .  A
C687        C692   1.398       .  A
C688        C689   1.415       .  A
C689        C690   1.409       .  A
C689       Br696   1.918       .  S
C690        H695   1.083       .  S
C690        C691   1.406       .  A
C691        C692   1.408       .  A
C692       Br693   1.921       .  S
C697        H704   1.083       .  S
C697        C698   1.412       .  A
C697        C702   1.405       .  A
C698        C699   1.419       .  A
C699        C700   1.422       .  A
C699       Br706   1.917       .  S
C700        H705   1.083       .  S
C700        C701   1.413       .  A
C701        C702   1.412       .  A
C702       Br703   1.921       .  S
C707        H714   1.083       .  S
C707        C708   1.424       .  A
C707        C712   1.405       .  A
C708        C709   1.401       .  A
C709        C710   1.403       .  A
C709       Br716   1.918       .  S
C710        H715   1.083       .  S
C710        C711   1.424       .  A
C711        C712   1.403       .  A
C712       Br713   1.919       .  S
C717        H724   1.084       .  S
C717        C718   1.404       .  A
C717        C722   1.396       .  A
C718        C719   1.412       .  A
C719        C720   1.408       .  A
C719       Br726   1.917       .  S
C720        H725   1.083       .  S
C720        C721   1.406       .  A
C721        C722   1.412       .  A
C722       Br723   1.923       .  S
C727        H734   1.084       .  S
C727        C728   1.409       .  A
C727        C732   1.395       .  A
C728        C729   1.409       .  A
C729        C730   1.394       .  A
C729       Br736   1.923       .  S
C730        H735   1.084       .  S
C730        C731   1.410       .  A
C731        C732   1.411       .  A
C732       Br733   1.923       .  S
C737        H744   1.084       .  S
C737        C738   1.401       .  A
C737        C742   1.396       .  A
C738        C739   1.406       .  A
C739        C740   1.402       .  A
C739       Br746   1.917       .  S
C740        H745   1.083       .  S
C740        C741   1.405       .  A
C741        C742   1.408       .  A
C742       Br743   1.920       .  S
C747        H754   1.084       .  S
C747        C748   1.402       .  A
C747        C752   1.404       .  A
C748        C749   1.400       .  A
C749        C750   1.391       .  A
C749       Br756   1.920       .  S
C750        H755   1.083       .  S
C750        C751   1.410       .  A
C751        C752   1.416       .  A
C752       Br753   1.919       .  S
C757        H764   1.084   1_545  S
C757        C758   1.411       .  A
C757        C762   1.393   1_545  A
C758        C759   1.410       .  A
C759        C760   1.393       .  A
C759       Br766   1.924       .  S
C760        H765   1.084       .  S
C760        C761   1.409       .  A
C761        C762   1.406   1_545  A
C762       Br763   1.922       .  S
C767        H774   1.084       .  S
C767        C768   1.397   1_565  A
C767        C772   1.390   1_556  A
C768        C769   1.414       .  A
C769        C770   1.392       .  A
C769       Br776   1.920       .  S
C770        H775   1.084   1_556  S
C770        C771   1.400   1_556  A
C771        C772   1.420   1_545  A
C772       Br773   1.922       .  S
C777        H784   1.084       .  S
C777        C778   1.403       .  A
C777        C782   1.401       .  A
C778        C779   1.407       .  A
C779        C780   1.395       .  A
C779       Br786   1.919       .  S
C780        H785   1.084       .  S
C780        C781   1.403       .  A
C781        C782   1.411       .  A
C782       Br783   1.920       .  S
C787        H794   1.083       .  S
C787        C788   1.409       .  A
C787        C792   1.418       .  A
C788        C789   1.423       .  A
C789        C790   1.409       .  A
C789       Br796   1.922       .  S
C790        H795   1.084       .  S
C790        C791   1.403       .  A
C791        C792   1.416       .  A
C792       Br793   1.915       .  S
C797        H804   1.083       .  S
C797        C798   1.425       .  A
C797        C802   1.405       .  A
C798        C799   1.402       .  A
C799        C800   1.405       .  A
C799       Br806   1.917       .  S
C800        H805   1.083       .  S
C800        C801   1.424       .  A
C801        C802   1.401       .  A
C802       Br803   1.918       .  S
C807        H814   1.083       .  S
C807        C808   1.408       .  A
C807        C812   1.410       .  A
C808        C809   1.415       .  A
C809        C810   1.398       .  A
C809       Br816   1.922       .  S
C810        H815   1.084       .  S
C810        C811   1.403       .  A
C811        C812   1.413       .  A
C812       Br813   1.918       .  S
C817        H824   1.084       .  S
C817        C818   1.400       .  A
C817        C822   1.397       .  A
C818        C819   1.404       .  A
C819        C820   1.396       .  A
C819       Br826   1.919       .  S
C820        H825   1.084       .  S
C820        C821   1.406       .  A
C821        C822   1.410       .  A
C822       Br823   1.920       .  S
C827        H834   1.083       .  S
C827        C828   1.410       .  A
C827        C832   1.395       .  A
C828        C829   1.413   1_455  A
C829        C830   1.395       .  A
C829       Br836   1.924       .  S
C830        H835   1.083       .  S
C830        C831   1.409   1_655  A
C831        C832   1.409       .  A
C832       Br833   1.923       .  S
C837        H844   1.083       .  S
C837        C838   1.401       .  A
C837        C842   1.401       .  A
C838        C839   1.401       .  A
C839        C840   1.391       .  A
C839       Br846   1.920       .  S
C840        H845   1.084       .  S
C840        C841   1.408       .  A
C841        C842   1.414       .  A
C842       Br843   1.920       .  S
C847        H854   1.084       .  S
C847        C848   1.420       .  A
C847        C852   1.407       .  A
C848        C849   1.402       .  A
C849        C850   1.406       .  A
C849       Br856   1.918       .  S
C850        H855   1.084       .  S
C850        C851   1.419       .  A
C851        C852   1.402       .  A
C852       Br853   1.916       .  S
C857        H864   1.083       .  S
C857        C858   1.406       .  A
C857        C862   1.407       .  A
C858        C859   1.406       .  A
C859        C860   1.396       .  A
C859       Br866   1.920       .  S
C860        H865   1.084       .  S
C860        C861   1.408       .  A
C861        C862   1.413       .  A
C862       Br863   1.918       .  S
C867        H874   1.084       .  S
C867        C868   1.402       .  A
C867        C872   1.394       .  A
C868        C869   1.409       .  A
C869        C870   1.394       .  A
C869       Br876   1.919       .  S
C870        H875   1.084       .  S
C870        C871   1.400       .  A
C871        C872   1.407       .  A
C872       Br873   1.921       .  S
C877        H884   1.084       .  S
C877        C878   1.401       .  A
C877        C882   1.400       .  A
C878        C879   1.418   1_455  A
C879        C880   1.386       .  A
C879       Br886   1.926       .  S
C880        H885   1.084       .  S
C880        C881   1.397   1_655  A
C881        C882   1.414       .  A
C882       Br883   1.920       .  S
C887        H894   1.082       .  S
C887        C888   1.398       .  A
C887        C892   1.408       .  A
C888        C889   1.428       .  A
C889        C890   1.404       .  A
C889       Br896   1.925       .  S
C890        H895   1.083       .  S
C890        C891   1.395       .  A
C891        C892   1.423       .  A
C892       Br893   1.920       .  S
C897        H904   1.083       .  S
C897        C898   1.408       .  A
C897        C902   1.396       .  A
C898        C899   1.417       .  A
C899        C900   1.411       .  A
C899       Br906   1.919       .  S
C900        H905   1.083       .  S
C900        C901   1.406       .  A
C901        C902   1.408       .  A
C902       Br903   1.921       .  S
C907        H914   1.084       .  S
C907        C908   1.404       .  A
C907        C912   1.394       .  A
C908        C909   1.405       .  A
C909        C910   1.395       .  A
C909       Br916   1.918       .  S
C910        H915   1.083       .  S
C910        C911   1.403       .  A
C911        C912   1.404       .  A
C912       Br913   1.919       .  S
C917        H924   1.083       .  S
C917        C918   1.411       .  A
C917        C922   1.418       .  A
C918        C919   1.409       .  A
C919        C920   1.400       .  A
C919       Br926   1.923       .  S
C920        H925   1.082       .  S
C920        C921   1.412       .  A
C921        C922   1.417       .  A
C922       Br923   1.917       .  S
C927        H934   1.083       .  S
C927        C928   1.407       .  A
C927        C932   1.401       .  A
C928        C929   1.414       .  A
C929        C930   1.393       .  A
C929       Br936   1.923       .  S
C930        H935   1.084       .  S
C930        C931   1.396       .  A
C931        C932   1.405       .  A
C932       Br933   1.917       .  S
