geometry optimzed in LAMMPS
_audit_creation_date              2020-12-01 
_audit_creation_method            'lammps2cif' 
_symmetry_space_group_name_H-M    'P1' 
_symmetry_Int_Tables_number       1 
_symmetry_cell_setting            triclinic 
loop_ 
_symmetry_equiv_pos_as_xyz 
  x,y,z 
_cell_length_a                    38.73639132 
_cell_length_b                    38.36334226328683 
_cell_length_c                    42.82798447394471 
_cell_angle_alpha                 89.60240861808161 
_cell_angle_beta                  90.06978635016216 
_cell_angle_gamma                 90.06375896976816 
loop_ 
_atom_site_label 
_atom_site_type_symbol 
_atom_site_fract_x 
_atom_site_fract_y 
_atom_site_fract_z 
_atom_site_charge 
O1          O  0.40601312  0.91766091  0.45099841    -0.84200
O2          O  0.47043537  0.91125510  0.41979142    -0.81300
C3          C  0.49264815  0.89985160  0.40078593     0.99200
O4          O  0.48747735  0.87119482  0.38724789    -0.81300
O5          O  0.47554164  0.81820056  0.43297776    -0.84000
C6          C  0.45843096  0.80147220  0.45351628     1.03800
O7          O  0.42577613  0.80296313  0.45430909    -0.76700
O8          O  0.40743139  0.86722959  0.47556820    -0.76900
C9          C  0.40424468  0.89985473  0.47590205     1.03700
O10         O  0.37298642  0.90397903  0.39322130    -0.84200
O11         O  0.43397943  0.90269825  0.36257335    -0.81300
C12         C  0.42681498  0.87805559  0.34432212     0.99200
O13         O  0.42900557  0.84669539  0.35340826    -0.81300
O14         O  0.42460269  0.79015666  0.39308376    -0.83900
C15         C  0.39238022  0.78620394  0.39373226     1.03700
O16         O  0.37349281  0.80849444  0.40665828    -0.76800
O17         O  0.35267449  0.87110945  0.43095707    -0.76900
C18         C  0.34788795  0.89230398  0.40868625     1.03700
Cr19       Cr  0.42114943  0.90530028  0.40760662     1.93700
Cr20       Cr  0.45217778  0.83368347  0.39339368     1.93200
Cr21       Cr  0.39229302  0.83908825  0.43976616     1.39100
O22         O  0.42210734  0.85952405  0.41411332    -1.22000
O23         O  0.41756355  0.59752937  0.05567822    -0.84200
O24         O  0.45483874  0.59508786  0.11239880    -0.81300
C25         C  0.48426576  0.60927655  0.11177467     0.99200
O26         O  0.48742527  0.64064052  0.10305715    -0.81300
O27         O  0.46616875  0.70643575  0.07942618    -0.84000
C28         C  0.45891046  0.70532051  0.05035364     1.03800
O29         O  0.43431988  0.68658967  0.04078530    -0.76700
O30         O  0.38200173  0.63811252  0.03940999    -0.76900
C31         C  0.39631382  0.60887610  0.03568326     1.03700
O32         O  0.35726084  0.61481883  0.09058591    -0.84200
O33         O  0.39548760  0.61832508  0.14314573    -0.81300
C34         C  0.41672194  0.62857292  0.16329736     0.99200
O35         O  0.44231740  0.64747921  0.15557102    -0.81300
O36         O  0.41936210  0.71040820  0.13243840    -0.83900
C37         C  0.40480547  0.73224834  0.11483768     1.03700
O38         O  0.39860782  0.72477070  0.08680250    -0.76800
O39         O  0.34982150  0.67129085  0.09112571    -0.76900
C40         C  0.33767094  0.64083192  0.09407195     1.03700
Cr41       Cr  0.40754302  0.60983990  0.09972143     1.93700
Cr42       Cr  0.45128934  0.67474681  0.11567462     1.93200
Cr43       Cr  0.39315038  0.67838598  0.06666987     1.39100
O44         O  0.41786561  0.65423634  0.09391372    -1.22000
O45         O  0.34285691  0.58543111  0.28652098    -0.84200
O46         O  0.27751358  0.56843374  0.30633830    -0.81300
C47         C  0.27743252  0.53568199  0.30454355     0.99200
O48         O  0.29586613  0.51755321  0.32290072    -0.81300
O49         O  0.34936522  0.50338238  0.36709366    -0.84000
C50         C  0.38000779  0.50392385  0.35664943     1.03800
O51         O  0.39066012  0.52974306  0.34088710    -0.76700
O52         O  0.39096183  0.59532941  0.31223549    -0.76900
C53         C  0.37484065  0.59153996  0.28671211     1.03700
O54         O  0.34447106  0.64174528  0.32927277    -0.84200
O55         O  0.28333918  0.61854615  0.35446017    -0.81300
C56         C  0.26188760  0.59867982  0.36780370     0.99200
O57         O  0.26608821  0.56583648  0.36725929    -0.81300
O58         O  0.32076872  0.55434608  0.40700479    -0.83900
C59         C  0.35122416  0.55745338  0.41721716     1.03700
O60         O  0.37640398  0.55982013  0.39877675    -0.76800
O61         O  0.37010305  0.62429627  0.37192680    -0.76900
C62         C  0.35911594  0.64855466  0.35472962     1.03700
Cr63       Cr  0.31366937  0.60113801  0.32108349     1.93700
Cr64       Cr  0.30983980  0.53751348  0.36436640     1.93200
Cr65       Cr  0.37865333  0.57703229  0.35508110     1.39100
O66         O  0.33419802  0.57142716  0.34677480    -1.22000
O67         O  0.12345208  0.59797986  0.22438730    -0.84200
O68         O  0.18672454  0.57593290  0.20425919    -0.81300
C69         C  0.18474442  0.54311162  0.20692459     0.99200
O70         O  0.16596073  0.52565683  0.18853183    -0.81300
O71         O  0.11250183  0.51287643  0.14498993    -0.84000
C72         C  0.08273894  0.51331688  0.15704854     1.03800
O73         O  0.07347711  0.53882906  0.17350533    -0.76700
O74         O  0.07422398  0.60546750  0.19960858    -0.76900
C75         C  0.09144519  0.60366247  0.22464584     1.03700
O76         O  0.12254248  0.65198128  0.17818914    -0.84200
O77         O  0.18250828  0.62531440  0.15322491    -0.81300
C78         C  0.20288101  0.60393377  0.14077611     0.99200
O79         O  0.19732152  0.57154806  0.14363624    -0.81300
O80         O  0.14126314  0.56355578  0.10453248    -0.83900
C81         C  0.11050013  0.56698368  0.09502336     1.03700
O82         O  0.08581943  0.56796517  0.11411154    -0.76800
O83         O  0.09213599  0.63232857  0.13909407    -0.76900
C84         C  0.10458197  0.65744703  0.15405064     1.03700
Cr85       Cr  0.15211002  0.61047376  0.18817353     1.93700
Cr86       Cr  0.15258151  0.54575117  0.14701886     1.93200
Cr87       Cr  0.08487376  0.58579308  0.15745042     1.39100
O88         O  0.12966523  0.58041114  0.16443699    -1.22000
O89         O  0.05571896  0.93111132  0.05250800    -0.84200
O90         O  0.02038230  0.93250989  0.10974204    -0.81300
C91         C  0.99070821  0.91886117  0.10944816     0.99200
O92         O  0.98688789  0.88769514  0.10073215    -0.81300
O93         O  0.00690192  0.82179968  0.07720395    -0.84000
C94         C  0.01328997  0.82286564  0.04800719     1.03800
O95         O  0.03673708  0.84254275  0.03756979    -0.76700
O96         O  0.08971591  0.89014388  0.03491371    -0.76900
C97         C  0.07571536  0.91964486  0.03174171     1.03700
O98         O  0.11696154  0.91193220  0.08574772    -0.84200
O99         O  0.08033172  0.90760993  0.13929581    -0.81300
C100        C  0.06026742  0.89566408  0.15982181     0.99200
O101        O  0.03295369  0.87946730  0.15242178    -0.81300
O102        O  0.05510646  0.81712016  0.12884411    -0.83900
C103        C  0.06951242  0.79567921  0.11102272     1.03700
O104        O  0.07380144  0.80322902  0.08265298    -0.76800
O105        O  0.12288231  0.85523133  0.08561926    -0.76900
C106        C  0.13583791  0.88522124  0.08850106     1.03700
Cr107      Cr  0.06704573  0.91757937  0.09616388     1.93700
Cr108      Cr  0.02279573  0.85308542  0.11277345     1.93200
Cr109      Cr  0.07892506  0.84960860  0.06228392     1.39100
O110        O  0.05571782  0.87357225  0.09027695    -1.22000
O111        O  0.05062592  0.60796971  0.45669091    -0.84200
O112        O  0.01286459  0.60434075  0.40051321    -0.81300
C113        C  0.98354627  0.61836900  0.40008613     0.99200
O114        O  0.98043008  0.65001684  0.40783251    -0.81300
O115        O  0.00342310  0.71602588  0.43126977    -0.84000
C116        C  0.01321673  0.71715358  0.45967652     1.03800
O117        O  0.03852293  0.69919469  0.46915445    -0.76700
O118        O  0.08795158  0.64765945  0.47104865    -0.76900
C119        C  0.07242225  0.61921890  0.47615306     1.03700
O120        O  0.11057971  0.62168889  0.42035820    -0.84200
O121        O  0.07107537  0.62580291  0.36798028    -0.81300
C122        C  0.05052202  0.63820315  0.34798000     0.99200
O123        O  0.02575403  0.65798482  0.35569571    -0.81300
O124        O  0.04773596  0.72137824  0.37757965    -0.83900
C125        C  0.06645947  0.74141366  0.39345589     1.03700
O126        O  0.07514818  0.73333137  0.42082592    -0.76800
O127        O  0.12023628  0.67756945  0.41682426    -0.76900
C128        C  0.13100095  0.64661137  0.41489776     1.03700
Cr129      Cr  0.06011038  0.61873641  0.41206403     1.93700
Cr130      Cr  0.01706208  0.68458819  0.39527843     1.93200
Cr131      Cr  0.07812801  0.68750703  0.44231054     1.39100
O132        O  0.05115240  0.66372450  0.41661360    -1.22000
O133        O  0.33987350  0.92717424  0.22314428    -0.84200
O134        O  0.27908207  0.94855445  0.19673539    -0.81300
C135        C  0.27968418  0.98147774  0.19927852     0.99200
O136        O  0.29943367  0.99978607  0.18208859    -0.81300
O137        O  0.35543598  0.01487868  0.14128883    -0.84000
C138        C  0.38270888  0.01750147  0.15723289     1.03800
O139        O  0.39096711  0.99291722  0.17552030    -0.76700
O140        O  0.39219844  0.92667312  0.20339166    -0.76900
C141        C  0.37195884  0.92357342  0.22643771     1.03700
O142        O  0.34855136  0.87524074  0.17691571    -0.84200
O143        O  0.29075222  0.89955638  0.14664261    -0.81300
C144        C  0.27010938  0.92005784  0.13328150     0.99200
O145        O  0.27391176  0.95254304  0.13628498    -0.81300
O146        O  0.33318862  0.96059560  0.10128496    -0.83900
C147        C  0.36487875  0.95711411  0.09467145     1.03700
O148        O  0.38751123  0.96106734  0.11561800    -0.76800
O149        O  0.38454088  0.89715072  0.14271492    -0.76900
C150        C  0.37085244  0.87114162  0.15580589     1.03700
Cr151      Cr  0.31635805  0.91518842  0.18407346     1.93700
Cr152      Cr  0.31717206  0.97980222  0.14196035     1.93200
Cr153      Cr  0.38537248  0.94472760  0.15986842     1.39100
O154        O  0.33985875  0.94668957  0.16234852    -1.22000
O155        O  0.13630801  0.93284792  0.28778854    -0.84200
O156        O  0.19639288  0.95906580  0.30890850    -0.81300
C157        C  0.19236046  0.99095538  0.30213567     0.99200
O158        O  0.17326004  0.01008998  0.31897603    -0.81300
O159        O  0.12028716  0.02596445  0.36345735    -0.84000
C160        C  0.09088499  0.02540034  0.35095597     1.03800
O161        O  0.08244740  0.99986208  0.33429184    -0.76700
O162        O  0.08384630  0.93377738  0.30726226    -0.76900
C163        C  0.10423318  0.92982268  0.28435718     1.03700
O164        O  0.13332686  0.88367723  0.33719656    -0.84200
O165        O  0.19017530  0.91471034  0.36356889    -0.81300
C166        C  0.21187513  0.93723212  0.37177152     0.99200
O167        O  0.20570306  0.96913754  0.36694682    -0.81300
O168        O  0.14836634  0.97722008  0.40479200    -0.83900
C169        C  0.11769868  0.97184681  0.41405318     1.03700
O170        O  0.09281442  0.96937957  0.39485910    -0.76800
O171        O  0.09417086  0.90491124  0.36853282    -0.76900
C172        C  0.10936820  0.87932772  0.35664830     1.03700
Cr173      Cr  0.16202199  0.92508145  0.32620561     1.93700
Cr174      Cr  0.16012351  0.99308154  0.36196368     1.93200
Cr175      Cr  0.09207853  0.95249539  0.35062499     1.39100
O176        O  0.13761772  0.95677996  0.34618990    -1.22000
O177        O  0.57637422  0.44578614  0.21174658    -0.84200
O178        O  0.57094379  0.48384700  0.15638661    -0.81300
C179        C  0.58598568  0.51300670  0.15632921     0.99200
O180        O  0.61829324  0.51506001  0.15958029    -0.81300
O181        O  0.68193960  0.49219953  0.18310461    -0.84000
C182        C  0.68100328  0.48518358  0.21228348     1.03800
O183        O  0.66369876  0.45958177  0.22252515    -0.76700
O184        O  0.61511674  0.40726557  0.22536567    -0.76900
C185        C  0.58760822  0.42350354  0.23093890     1.03700
O186        O  0.58893692  0.38429853  0.17542373    -0.84200
O187        O  0.58985528  0.42352689  0.12346494    -0.81300
C188        C  0.60374067  0.44145985  0.10230461     0.99200
O189        O  0.62296339  0.46732605  0.10844153    -0.81300
O190        O  0.68527492  0.44378947  0.13064760    -0.83900
C191        C  0.70663652  0.42825313  0.14794228     1.03700
O192        O  0.69935933  0.42299254  0.17612559    -0.76800
O193        O  0.64466186  0.37554141  0.17181685    -0.76900
C194        C  0.61400407  0.36428122  0.16958120     1.03700
Cr195      Cr  0.58500540  0.43554175  0.16717181     1.93700
Cr196      Cr  0.65048311  0.47703926  0.14747355     1.93200
Cr197      Cr  0.65385298  0.41839829  0.19681209     1.39100
O198        O  0.62968794  0.44430825  0.17046136    -1.22000
O199        O  0.88821157  0.43648879  0.30352096    -0.84200
O200        O  0.88537294  0.50141673  0.33318228    -0.81300
C201        C  0.87744440  0.52506436  0.35225224     0.99200
O202        O  0.84990923  0.52185806  0.36776406    -0.81300
O203        O  0.79470072  0.51084236  0.32459884    -0.84000
C204        C  0.77666624  0.49390766  0.30504267     1.03800
O205        O  0.77655917  0.46085092  0.30475293    -0.76700
O206        O  0.83690091  0.43334539  0.28176195    -0.76900
C207        C  0.86930961  0.43108771  0.28002589     1.03700
O208        O  0.87760297  0.40359929  0.36204233    -0.84200
O209        O  0.87913730  0.46598146  0.39173088    -0.81300
C210        C  0.85592647  0.46148443  0.41205797     0.99200
O211        O  0.82441247  0.46544135  0.40471174    -0.81300
O212        O  0.76511697  0.46323202  0.36714438    -0.83900
C213        C  0.75796236  0.43121700  0.36693848     1.03700
O214        O  0.77910252  0.41030035  0.35514642    -0.76800
O215        O  0.83779593  0.38301502  0.33047715    -0.76900
C216        C  0.86174970  0.37834200  0.34998087     1.03700
Cr217      Cr  0.87874161  0.45231147  0.34697047     1.93700
Cr218      Cr  0.81051626  0.48778954  0.36421781     1.93200
Cr219      Cr  0.80955860  0.42468096  0.32005594     1.39100
O220        O  0.83311761  0.45490767  0.34319135    -1.22000
O221        O  0.90043812  0.37558920  0.03406854    -0.84200
O222        O  0.92848749  0.31341455  0.05286017    -0.81300
C223        C  0.96115148  0.31598826  0.05192574     0.99200
O224        O  0.97727296  0.33462045  0.07157836    -0.81300
O225        O  0.98550549  0.38817006  0.11608721    -0.84000
C226        C  0.98525989  0.41766822  0.10280595     1.03800
O227        O  0.95977007  0.42664088  0.08609941    -0.76700
O228        O  0.89288145  0.42453873  0.05940288    -0.76900
C229        C  0.89314023  0.40757949  0.03416336     1.03700
O230        O  0.84865399  0.37129227  0.08151283    -0.84200
O231        O  0.87972631  0.31128427  0.10406524    -0.81300
C232        C  0.90230609  0.29103829  0.11507871     0.99200
O233        O  0.93365438  0.29949481  0.11398460    -0.81300
O234        O  0.93399652  0.35556562  0.15452498    -0.83900
C235        C  0.92863334  0.38631120  0.16400922     1.03700
O236        O  0.93090838  0.41167523  0.14526682    -0.76800
O237        O  0.86747407  0.40415689  0.11952670    -0.76900
C238        C  0.84292961  0.39022301  0.10500227     1.03700
Cr239      Cr  0.89160024  0.34469704  0.07006314     1.93700
Cr240      Cr  0.95518484  0.34633310  0.11259215     1.93200
Cr241      Cr  0.91334696  0.41321892  0.10156611     1.39100
O242        O  0.92035457  0.36828960  0.09413225    -1.22000
O243        O  0.90245819  0.16242257  0.47782702    -0.84200
O244        O  0.92995208  0.22333536  0.45487391    -0.81300
C245        C  0.96262656  0.22198989  0.45615660     0.99200
O246        O  0.97971163  0.20320318  0.43723895    -0.81300
O247        O  0.99024291  0.14910639  0.39222325    -0.84000
C248        C  0.99247042  0.11998690  0.40576648     1.03800
O249        O  0.96920902  0.11063913  0.42459538    -0.76700
O250        O  0.90639395  0.11034675  0.45656961    -0.76900
C251        C  0.90143836  0.12962339  0.48001397     1.03700
O252        O  0.85247021  0.16194921  0.42983075    -0.84200
O253        O  0.88117967  0.22028832  0.40345026    -0.81300
C254        C  0.90262014  0.24152139  0.39219153     0.99200
O255        O  0.93425944  0.23485687  0.39437635    -0.81300
O256        O  0.93542782  0.17659734  0.35596184    -0.83900
C257        C  0.93010810  0.14533283  0.34766126     1.03700
O258        O  0.93304539  0.12040912  0.36697059    -0.76800
O259        O  0.87239558  0.12203427  0.39829146    -0.76900
C260        C  0.84752552  0.13765259  0.41077495     1.03700
Cr261      Cr  0.89422513  0.18999600  0.43945883     1.93700
Cr262      Cr  0.95749996  0.18886385  0.39676807     1.93200
Cr263      Cr  0.92069556  0.11979688  0.41237053     1.39100
O264        O  0.92428753  0.16580954  0.41687055    -1.22000
O265        O  0.58504127  0.08712941  0.30659914    -0.84200
O266        O  0.58604365  0.02116759  0.33644943    -0.81300
C267        C  0.59526893  0.99739123  0.35521953     0.99200
O268        O  0.62364159  0.99997799  0.36931223    -0.81300
O269        O  0.67727310  0.01419178  0.32514616    -0.84000
C270        C  0.69599845  0.03261446  0.30708376     1.03800
O271        O  0.69807323  0.06530189  0.31064135    -0.76700
O272        O  0.63743660  0.08817837  0.28728204    -0.76900
C273        C  0.60536311  0.09091392  0.28368238     1.03700
O274        O  0.59401498  0.11833470  0.36645289    -0.84200
O275        O  0.59315370  0.05538484  0.39507343    -0.81300
C276        C  0.61711351  0.05738429  0.41508074     0.99200
O277        O  0.64843698  0.05338100  0.40724233    -0.81300
O278        O  0.70664979  0.05990027  0.37008646    -0.83900
C279        C  0.71215602  0.09213394  0.37271005     1.03700
O280        O  0.69036327  0.11337939  0.36205531    -0.76800
O281        O  0.63207798  0.14003338  0.33405788    -0.76900
C282        C  0.60847240  0.14424147  0.35391003     1.03700
Cr283      Cr  0.59326123  0.07015014  0.35046044     1.93700
Cr284      Cr  0.66220871  0.03414267  0.36622157     1.93200
Cr285      Cr  0.66252015  0.09924342  0.32540141     1.39100
O286        O  0.63896458  0.06786482  0.34709892    -1.22000
O287        O  0.89398567  0.09727223  0.20527681    -0.84200
O288        O  0.89160319  0.03202730  0.17658856    -0.81300
C289        C  0.88365111  0.00778645  0.15821819     0.99200
O290        O  0.85607961  0.01016248  0.14259941    -0.81300
O291        O  0.80169864  0.02130525  0.18615567    -0.84000
C292        C  0.78310018  0.03824434  0.20520482     1.03800
O293        O  0.78159198  0.07124380  0.20393266    -0.76700
O294        O  0.84284092  0.09567253  0.22729652    -0.76900
C295        C  0.87500617  0.10010118  0.22922573     1.03700
O296        O  0.88177914  0.12815893  0.14541096    -0.84200
O297        O  0.88469782  0.06591570  0.11631520    -0.81300
C298        C  0.86050381  0.07019610  0.09671101     0.99200
O299        O  0.82937676  0.06564661  0.10488530    -0.81300
O300        O  0.77179208  0.06903206  0.14316772    -0.83900
C301        C  0.76625119  0.10134636  0.14132509     1.03700
O302        O  0.78706463  0.12214090  0.15380632    -0.76800
O303        O  0.84550432  0.14820708  0.18017523    -0.76900
C304        C  0.86723514  0.15326933  0.15871506     1.03700
Cr305      Cr  0.88457591  0.08030170  0.16157506     1.93700
Cr306      Cr  0.81653037  0.04374228  0.14584427     1.93200
Cr307      Cr  0.81605497  0.10678354  0.18938107     1.39100
O308        O  0.83926169  0.07690525  0.16601750    -1.22000
O309        O  0.56954344  0.35878974  0.47575466    -0.84200
O310        O  0.54092980  0.29962721  0.45358746    -0.81300
C311        C  0.50863187  0.30302133  0.45738574     0.99200
O312        O  0.49076807  0.32189905  0.43910989    -0.81300
O313        O  0.47777126  0.37628380  0.39549541    -0.84000
C314        C  0.47652660  0.40473526  0.40988178     1.03800
O315        O  0.50092485  0.41277381  0.42801224    -0.76700
O316        O  0.56594698  0.41193276  0.45659046    -0.76900
C317        C  0.57095875  0.39127967  0.47928953     1.03700
O318        O  0.61772454  0.36125231  0.42554910    -0.84200
O319        O  0.58697967  0.30411672  0.40008112    -0.81300
C320        C  0.56496557  0.28246324  0.39088098     0.99200
O321        O  0.53335123  0.28951099  0.39379234    -0.81300
O322        O  0.52904368  0.34965507  0.35650157    -0.83900
C323        C  0.53346955  0.38133164  0.34867964     1.03700
O324        O  0.53327684  0.40525835  0.36884405    -0.76800
O325        O  0.59626769  0.40319757  0.39644464    -0.76900
C326        C  0.62176344  0.38644306  0.40685027     1.03700
Cr327      Cr  0.57622251  0.33303827  0.43691678     1.93700
Cr328      Cr  0.51035692  0.33610324  0.39787634     1.93200
Cr329      Cr  0.54872623  0.40438363  0.41308666     1.39100
O330        O  0.54521437  0.35822363  0.41631732    -1.22000
O331        O  0.58900479  0.14508923  0.03741529    -0.84200
O332        O  0.53801585  0.19400471  0.04243326    -0.81300
C333        C  0.51229748  0.21009694  0.05314639     0.99200
O334        O  0.50507608  0.20916467  0.08214946    -0.81300
O335        O  0.48467945  0.14224417  0.10277448    -0.84000
C336        C  0.48821383  0.11045195  0.10990136     1.03800
O337        O  0.51762968  0.09657382  0.10905996    -0.76700
O338        O  0.55265400  0.10407272  0.05160086    -0.76900
C339        C  0.57391219  0.11650558  0.03213245     1.03700
O340        O  0.62215656  0.17355459  0.09157404    -0.84200
O341        O  0.57557522  0.22789786  0.09074044    -0.81300
C342        C  0.57024703  0.23243492  0.11940514     0.99200
O343        O  0.55270591  0.21069541  0.13471353    -0.81300
O344        O  0.53144754  0.14682147  0.15464483    -0.83900
C345        C  0.55861665  0.12964701  0.16076808     1.03700
O346        O  0.57757392  0.11802861  0.13943237    -0.76800
O347        O  0.61382187  0.11780223  0.08600140    -0.76900
C348        C  0.63355560  0.14277428  0.09276790     1.03700
Cr349      Cr  0.57910277  0.18322141  0.06749838     1.93700
Cr350      Cr  0.52088334  0.17591180  0.11640507     1.93200
Cr351      Cr  0.56411230  0.11248194  0.09602408     1.39100
O352        O  0.55404237  0.15722806  0.09316614    -1.22000
C353        C  0.48522944  0.24795926  0.47887072     0.24700
C354        C  0.49328357  0.28324613  0.48341049    -0.23400
C355        C  0.49929061  0.29520580  0.51387811     0.19600
C356        C  0.49454473  0.26964654  0.03737536     0.24600
C357        C  0.49407890  0.23367584  0.03138474    -0.23300
C358        C  0.48707000  0.22220122  0.00089529     0.19600
F359        F  0.48589771  0.18756430  0.99463084    -0.13300
F360        F  0.47955674  0.23580263  0.44961706    -0.15700
F361        F  0.50144254  0.28142203  0.06655931    -0.15700
F362        F  0.50788233  0.32908891  0.51865272    -0.13300
C363        C  0.69115619  0.15907912  0.11621901     0.24700
C364        C  0.66947637  0.13445181  0.10185382    -0.23400
C365        C  0.68140228  0.09999430  0.09836820     0.19600
C366        C  0.71309939  0.08988339  0.11035842     0.24600
C367        C  0.73424145  0.11388323  0.12607869    -0.23300
C368        C  0.72334768  0.14888016  0.12821703     0.19600
F369        F  0.74313035  0.17299389  0.14289393    -0.13300
F370        F  0.68074949  0.19259169  0.11981095    -0.15700
F371        F  0.72249033  0.05599882  0.10707489    -0.15700
F372        F  0.66204235  0.07526842  0.08398831    -0.13300
C373        C  0.55309044  0.21909073  0.38211685     0.24700
C374        C  0.57575112  0.24771102  0.37946252    -0.23400
C375        C  0.60919319  0.24212383  0.36767334     0.19600
C376        C  0.61974643  0.20864543  0.35893387     0.24600
C377        C  0.59723769  0.17995620  0.36222478    -0.23300
C378        C  0.56373375  0.18567880  0.37374128     0.19600
F379        F  0.54096762  0.15892235  0.37675879    -0.13300
F380        F  0.52081567  0.22306639  0.39387910    -0.15700
F381        F  0.65237099  0.20422006  0.34810570    -0.15700
F382        F  0.63177074  0.26903202  0.36462041    -0.13300
C383        C  0.70333931  0.01865956  0.25103166     0.24700
C384        C  0.71684064  0.01775444  0.28152007    -0.23400
C385        C  0.75280794  0.01510461  0.28546467     0.19600
C386        C  0.77497790  0.01665655  0.25954508     0.24600
C387        C  0.76153479  0.02102666  0.22927717    -0.23300
C388        C  0.72550371  0.02035540  0.22513064     0.19600
F389        F  0.71181050  0.02569425  0.19628566    -0.13300
F390        F  0.66884730  0.02258361  0.24652334    -0.15700
F391        F  0.80958507  0.01849838  0.26434150    -0.15700
F392        F  0.76660463  0.01549858  0.31461579    -0.13300
C393        C  0.57289676  0.06310812  0.45749654     0.24700
C394        C  0.60757435  0.06608814  0.44743149    -0.23400
C395        C  0.63180364  0.08210412  0.46704143     0.19600
C396        C  0.62094388  0.09494413  0.99827911     0.24600
C397        C  0.58538209  0.09654062  0.00500299    -0.23300
C398        C  0.56233298  0.07817665  0.48550554     0.19600
F399        F  0.52862913  0.07634344  0.49402310    -0.13300
F400        F  0.54879403  0.04691559  0.43967912    -0.15700
F401        F  0.64454637  0.10815449  0.01850007    -0.15700
F402        F  0.66546948  0.08506549  0.45857460    -0.13300
C403        C  0.61600827  0.11059501  0.22893751     0.24700
C404        C  0.59226976  0.10079065  0.25239054    -0.23400
C405        C  0.55658800  0.10299703  0.24591730     0.19600
C406        C  0.54511618  0.11376358  0.21634267     0.24600
C407        C  0.56914346  0.12232764  0.19300092    -0.23300
C408        C  0.60453508  0.12129476  0.19978731     0.19600
F409        F  0.62831906  0.13096582  0.17806117    -0.13300
F410        F  0.65063490  0.11042783  0.23403038    -0.15700
F411        F  0.51072522  0.11462740  0.21022510    -0.15700
F412        F  0.53280781  0.09451050  0.26795779    -0.13300
C413        C  0.89474759  0.07616428  0.01330043     0.24700
C414        C  0.89345738  0.11253847  0.00775330    -0.23400
C415        C  0.87882188  0.13377510  0.03112505     0.19600
C416        C  0.86680481  0.11937037  0.05920251     0.24600
C417        C  0.86920625  0.08347004  0.06506991    -0.23300
C418        C  0.88319854  0.06188302  0.04189832     0.19600
F419        F  0.88571415  0.02701095  0.04697840    -0.13300
F420        F  0.90747283  0.05439777  0.99127698    -0.15700
F421        F  0.85340095  0.14082328  0.08115667    -0.15700
F422        F  0.84194456  0.15080280  0.51273703    -0.13300
C423        C  0.93686387  0.11286257  0.29745815     0.24700
C424        C  0.91855003  0.13690633  0.31574747    -0.23400
C425        C  0.88600609  0.14832704  0.30562444     0.19600
C426        C  0.87172407  0.13564248  0.27789587     0.24600
C427        C  0.89004107  0.11174937  0.25931810    -0.23300
C428        C  0.92306403  0.10095279  0.26910646     0.19600
F429        F  0.94141706  0.07797808  0.25180551    -0.13300
F430        F  0.96792734  0.10061673  0.30730695    -0.15700
F431        F  0.84002875  0.14714348  0.26901226    -0.15700
F432        F  0.86721780  0.17042187  0.32348639    -0.13300
C433        C  0.77302028  0.08005754  0.38851807     0.24700
C434        C  0.74565924  0.10407401  0.38543272    -0.23400
C435        C  0.75164698  0.13931858  0.39281639     0.19600
C436        C  0.78461814  0.15036375  0.40198818     0.24600
C437        C  0.81211309  0.12644830  0.40337462    -0.23300
C438        C  0.80576640  0.09117505  0.39721663     0.19600
F439        F  0.83138028  0.06716032  0.39976756    -0.13300
F440        F  0.76865050  0.04570472  0.38215210    -0.15700
F441        F  0.78991052  0.18458447  0.40836450    -0.15700
F442        F  0.72582754  0.16315210  0.39084726    -0.13300
C443        C  0.91801326  0.22956076  0.12781580     0.24700
C444        C  0.89312263  0.25635496  0.12765030    -0.23400
C445        C  0.85989098  0.24931213  0.13925294     0.19600
C446        C  0.85156445  0.21590961  0.15020352     0.24600
C447        C  0.87619612  0.18900388  0.14919610    -0.23300
C448        C  0.90952052  0.19623442  0.13814516     0.19600
F449        F  0.93417276  0.17107062  0.13763094    -0.13300
F450        F  0.95063116  0.23523688  0.11743807    -0.15700
F451        F  0.81914103  0.20964597  0.16087884    -0.15700
F452        F  0.83562130  0.27477197  0.14033954    -0.13300
C453        C  0.97980019  0.30686781  0.99690247     0.24700
C454        C  0.97916215  0.29493480  0.02798797    -0.23400
C455        C  0.98494694  0.25926943  0.03384677     0.19600
C456        C  0.98670120  0.23545617  0.00909077     0.24600
C457        C  0.97895384  0.24503152  0.47951952    -0.23300
C458        C  0.97767478  0.28120222  0.47393316     0.19600
F459        F  0.97334895  0.29345347  0.44436197    -0.13300
F460        F  0.96949644  0.33886128  0.49262974    -0.15700
F461        F  0.98747525  0.20077192  0.01557651    -0.15700
F462        F  0.98478387  0.24695422  0.06358336    -0.13300
C463        C  0.91392696  0.43688207  0.23802366     0.24700
C464        C  0.88552077  0.41914734  0.25080626    -0.23400
C465        C  0.87439204  0.38788281  0.23697425     0.19600
C466        C  0.89071329  0.37516098  0.21016973     0.24600
C467        C  0.91782612  0.39401976  0.19630498    -0.23300
C468        C  0.92961446  0.42472290  0.21075721     0.19600
F469        F  0.95586712  0.44343864  0.19794309    -0.13300
F470        F  0.92560498  0.46672130  0.25125377    -0.15700
F471        F  0.87856436  0.34565429  0.19666806    -0.15700
F472        F  0.84783913  0.36948770  0.24963057    -0.13300
C473        C  0.91074658  0.42582633  0.47844700     0.24700
C474        C  0.88355054  0.42462071  0.00440984    -0.23400
C475        C  0.85403864  0.44595439  0.00192441     0.19600
C476        C  0.84441153  0.45358049  0.46981231     0.24600
C477        C  0.86693170  0.45131975  0.44412747    -0.23300
C478        C  0.90053311  0.43780701  0.44903732     0.19600
F479        F  0.92331542  0.43469473  0.42513782    -0.13300
F480        F  0.94276054  0.41199831  0.48217055    -0.15700
F481        F  0.81194267  0.46627648  0.46622757    -0.15700
F482        F  0.83502738  0.45337617  0.02764631    -0.13300
C483        C  0.90680480  0.33414290  0.36131028     0.24700
C484        C  0.87178359  0.34260067  0.35848804    -0.23400
C485        C  0.84669111  0.31683844  0.36414550     0.19600
C486        C  0.85651231  0.28353797  0.37432767     0.24600
C487        C  0.89168734  0.27537567  0.37849957    -0.23300
C488        C  0.91673429  0.30086466  0.37087843     0.19600
F489        F  0.95104762  0.29408222  0.37324491    -0.13300
F490        F  0.93155065  0.35812103  0.35447472    -0.15700
F491        F  0.83156568  0.25959538  0.38051690    -0.15700
F492        F  0.81260024  0.32433264  0.36105981    -0.13300
C493        C  0.69799498  0.44365977  0.38624089     0.24700
C494        C  0.72377573  0.41909499  0.37876046    -0.23400
C495        C  0.71567237  0.38329402  0.38131155     0.19600
C496        C  0.68267661  0.37252325  0.39092662     0.24600
C497        C  0.65696833  0.39725281  0.39755772    -0.23300
C498        C  0.66503439  0.43283252  0.39521871     0.19600
F499        F  0.64103455  0.45735153  0.40219058    -0.13300
F500        F  0.70426471  0.47843864  0.38442846    -0.15700
F501        F  0.67550181  0.33791021  0.39270590    -0.15700
F502        F  0.73946481  0.35861320  0.37426904    -0.13300
C503        C  0.78078225  0.40415544  0.09377119     0.24700
C504        C  0.80732020  0.39729684  0.11538889    -0.23400
C505        C  0.80028137  0.39972016  0.14742260     0.19600
C506        C  0.76758061  0.40929627  0.15778956     0.24600
C507        C  0.74098051  0.41711360  0.13628071    -0.23300
C508        C  0.74794413  0.41430057  0.10410302     0.19600
F509        F  0.72311260  0.42146058  0.08261453    -0.13300
F510        F  0.78704262  0.40249532  0.06263821    -0.15700
F511        F  0.76244544  0.41179074  0.18906911    -0.15700
F512        F  0.82520786  0.39277083  0.16888679    -0.13300
C513        C  0.69305980  0.50662295  0.26615466     0.24700
C514        C  0.70354922  0.50369599  0.23481432    -0.23400
C515        C  0.73840166  0.51005172  0.22737067     0.19600
C516        C  0.76301376  0.51339978  0.25127651     0.24600
C517        C  0.75299866  0.51093565  0.28274494    -0.23300
C518        C  0.71762534  0.51029967  0.28992266     0.19600
F519        F  0.70722609  0.50793145  0.32013016    -0.13300
F520        F  0.65940451  0.50198035  0.27404785    -0.15700
F521        F  0.79704542  0.51401407  0.24375998    -0.15700
F522        F  0.74941155  0.50794441  0.19736214    -0.13300
C523        C  0.56388433  0.28082960  0.15757394     0.24700
C524        C  0.58364842  0.26410587  0.13472363    -0.23400
C525        C  0.61566933  0.27861347  0.12593709     0.19600
C526        C  0.62698291  0.31013616  0.13886962     0.24600
C527        C  0.60605706  0.32801154  0.16024933    -0.23300
C528        C  0.57477433  0.31252775  0.16998508     0.19600
F529        F  0.55402133  0.32857062  0.19097031    -0.13300
F530        F  0.53294438  0.26753467  0.16665208    -0.15700
F531        F  0.65738074  0.32407391  0.12912751    -0.15700
F532        F  0.63588258  0.26239838  0.10462616    -0.13300
C533        C  0.59794134  0.39485543  0.06360095     0.24700
C534        C  0.59721700  0.43060286  0.07014358    -0.23400
C535        C  0.58701787  0.45436188  0.04689411     0.19600
C536        C  0.57711653  0.44227212  0.01739050     0.24600
C537        C  0.57747431  0.40622641  0.01089793    -0.23300
C538        C  0.58825614  0.38275317  0.03444363     0.19600
F539        F  0.58986176  0.34785970  0.02943524    -0.13300
F540        F  0.60812754  0.37139642  0.08567653    -0.15700
F541        F  0.55646068  0.46153262  0.49853795    -0.15700
F542        F  0.58509983  0.48894172  0.05319328    -0.13300
C543        C  0.55271817  0.43743834  0.27805847     0.24700
C544        C  0.56786797  0.41285789  0.25846684    -0.23400
C545        C  0.56690775  0.37726381  0.26665440     0.19600
C546        C  0.55319035  0.36656919  0.29510819     0.24600
C547        C  0.54047613  0.39137046  0.31605249    -0.23300
C548        C  0.53913748  0.42684555  0.30676892     0.19600
F549        F  0.52628467  0.45161120  0.32604591    -0.13300
F550        F  0.55346892  0.47187563  0.27053744    -0.15700
F551        F  0.55480551  0.33224509  0.30296475    -0.15700
F552        F  0.58066243  0.35280623  0.24758133    -0.13300
C553        C  0.00841189  0.06157768  0.38501630     0.24700
C554        C  0.01873620  0.09510695  0.39436519    -0.23400
C555        C  0.05216502  0.10664627  0.38668055     0.19600
C556        C  0.07516974  0.08470654  0.37093248     0.24600
C557        C  0.06487054  0.05113062  0.36155622    -0.23300
C558        C  0.03107736  0.03996095  0.36859120     0.19600
F559        F  0.02034373  0.00745360  0.36078376    -0.13300
F560        F  0.97577416  0.05020615  0.39062605    -0.15700
F561        F  0.10765905  0.09624613  0.36494788    -0.15700
F562        F  0.06258889  0.13922813  0.39454779    -0.13300
C563        C  0.44189060  0.04378891  0.16021015     0.24700
C564        C  0.40759490  0.04602901  0.14963129    -0.23400
C565        C  0.39932417  0.07203081  0.12713794     0.19600
C566        C  0.42510417  0.09368144  0.11439696     0.24600
C567        C  0.45963351  0.08952353  0.12355465    -0.23300
C568        C  0.46746862  0.06501040  0.14726335     0.19600
F569        F  0.50028439  0.06124087  0.15799608    -0.13300
F570        F  0.45135201  0.01972486  0.18198442    -0.15700
F571        F  0.41655246  0.11738988  0.09202646    -0.15700
F572        F  0.36653539  0.07561135  0.11635359    -0.13300
C573        C  0.22010051  0.98987781  0.21915258     0.24700
C574        C  0.25554259  0.99711969  0.22207359    -0.23400
C575        C  0.26782031  0.01084956  0.25037394     0.19600
C576        C  0.24556435  0.01396173  0.27621628     0.24600
C577        C  0.21073159  0.00370034  0.27398003    -0.23300
C578        C  0.19790678  0.99338986  0.24474257     0.19600
F579        F  0.16465156  0.98263565  0.24193849    -0.13300
F580        F  0.20762626  0.97598054  0.19231559    -0.15700
F581        F  0.25887943  0.02320135  0.30429598    -0.15700
F582        F  0.30204876  0.01721645  0.25413107    -0.13300
C583        C  0.96283639  0.57144236  0.36431159     0.24700
C584        C  0.95467583  0.59729460  0.38653227    -0.23400
C585        C  0.91976712  0.60215996  0.39428693     0.19600
C586        C  0.89409021  0.58011525  0.38172722     0.24600
C587        C  0.90273502  0.55311675  0.36065379    -0.23300
C588        C  0.93743875  0.54992513  0.35159744     0.19600
F589        F  0.94747279  0.52466879  0.33149432    -0.13300
F590        F  0.99586875  0.56660365  0.35465540    -0.15700
F591        F  0.86089624  0.58462005  0.39097761    -0.15700
F592        F  0.91062263  0.62718231  0.41492614    -0.13300
C593        C  0.11238332  0.78601062  0.38508126     0.24700
C594        C  0.07790141  0.77540888  0.38095398    -0.23400
C595        C  0.05399145  0.79897438  0.36804242     0.19600
C596        C  0.06419054  0.83305184  0.36045411     0.24600
C597        C  0.09858619  0.84365412  0.36491642    -0.23300
C598        C  0.12275837  0.81970719  0.37665715     0.19600
F599        F  0.15614269  0.82938468  0.38100744    -0.13300
F600        F  0.13598331  0.76370279  0.39748031    -0.15700
F601        F  0.04059457  0.85566223  0.34851038    -0.15700
F602        F  0.02047431  0.78953239  0.36419228    -0.13300
C603        C  0.96978761  0.96462817  0.14585588     0.24700
C604        C  0.96192950  0.93901048  0.12341639    -0.23400
C605        C  0.92708103  0.93238591  0.11643342     0.19600
C606        C  0.90095315  0.95299115  0.12964398     0.24600
C607        C  0.90923985  0.98027287  0.15044190    -0.23300
C608        C  0.94391840  0.98470921  0.15926910     0.19600
F609        F  0.95339712  0.00987818  0.17972280    -0.13300
F610        F  0.00284434  0.97057195  0.15504761    -0.15700
F611        F  0.86768252  0.94689691  0.12127565    -0.15700
F612        F  0.91834911  0.90693446  0.09601512    -0.13300
C613        C  0.22160842  0.93012648  0.09647630     0.24700
C614        C  0.23953457  0.90710721  0.11632976    -0.23400
C615        C  0.22542449  0.87389318  0.12249920     0.19600
C616        C  0.19230474  0.86547770  0.11163256     0.24600
C617        C  0.17296881  0.89026619  0.09472370    -0.23300
C618        C  0.18858764  0.92205428  0.08619622     0.19600
F619        F  0.17136693  0.94627118  0.06896459    -0.13300
F620        F  0.23535361  0.96142183  0.08810322    -0.15700
F621        F  0.17825856  0.83425188  0.11968676    -0.15700
F622        F  0.24250728  0.85051732  0.14074798    -0.13300
C623        C  0.99544422  0.76181822  0.03586800     0.24700
C624        C  0.99826871  0.79689867  0.02628983    -0.23400
C625        C  0.99589169  0.80480307  0.99418559     0.19600
C626        C  0.99612887  0.77832059  0.47203812     0.24600
C627        C  0.99875685  0.74320968  0.48156822    -0.23300
C628        C  0.99676640  0.73531481  0.51365880     0.19600
F629        F  0.99843650  0.70168044  0.52361547    -0.13300
F630        F  0.99751646  0.75306148  0.06659177    -0.15700
F631        F  0.99734451  0.78697178  0.44125612    -0.15700
F632        F  0.99794440  0.83839479  0.98413866    -0.13300
C633        C  0.11516464  0.90708954  0.23086798     0.24700
C634        C  0.09145056  0.91992749  0.25302426    -0.23400
C635        C  0.05626968  0.92221233  0.24476887     0.19600
C636        C  0.04538838  0.91284565  0.21468542     0.24600
C637        C  0.06958022  0.90133018  0.19260395    -0.23300
C638        C  0.10432995  0.89813222  0.20112932     0.19600
F639        F  0.12808368  0.88624883  0.18044123    -0.13300
F640        F  0.14915405  0.90286465  0.23777498    -0.15700
F641        F  0.01166550  0.91661728  0.20670112    -0.15700
F642        F  0.03262278  0.93435905  0.26536493    -0.13300
C643        C  0.12154643  0.93967788  0.99587401     0.24700
C644        C  0.08665391  0.94098455  0.00496161    -0.23400
C645        C  0.06768040  0.95973275  0.48909744     0.19600
C646        C  0.07728438  0.97305076  0.45980185     0.24600
C647        C  0.11039480  0.96621827  0.44754420    -0.23300
C648        C  0.13474789  0.94894342  0.46633060     0.19600
F649        F  0.16708774  0.94238982  0.45562977    -0.13300
F650        F  0.14533110  0.92295614  0.01381641    -0.15700
F651        F  0.05373705  0.99127461  0.44280504    -0.15700
F652        F  0.03507274  0.96487288  0.49964820    -0.13300
C653        C  0.06732448  0.45382031  0.13779015     0.24700
C654        C  0.05709739  0.48781867  0.14557738    -0.23400
C655        C  0.02423938  0.49952614  0.13605175     0.19600
C656        C  0.00193049  0.47754957  0.11959038     0.24600
C657        C  0.01174356  0.44317894  0.11264547    -0.23300
C658        C  0.04474511  0.43159457  0.12188173     0.19600
F659        F  0.05501765  0.39850297  0.11577658    -0.13300
F660        F  0.09925613  0.44208742  0.14564899    -0.15700
F661        F  0.97006166  0.48946890  0.11174682    -0.15700
F662        F  0.01415414  0.53281983  0.14152010    -0.13300
C663        C  0.07742137  0.58574525  0.27851925     0.24700
C664        C  0.07475216  0.61043134  0.25449085    -0.23400
C665        C  0.06005168  0.64319318  0.26038153     0.19600
C666        C  0.05043916  0.65206109  0.29077721     0.24600
C667        C  0.05543067  0.62808191  0.31531060    -0.23300
C668        C  0.06767141  0.59439454  0.30871536     0.19600
F669        F  0.07092642  0.57003997  0.33169894    -0.13300
F670        F  0.09024732  0.55350552  0.27278944    -0.15700
F671        F  0.03870544  0.68472869  0.29654548    -0.15700
F672        F  0.05742345  0.66738027  0.23720530    -0.13300
C673        C  0.05786229  0.57923704  0.02171336     0.24700
C674        C  0.08119304  0.59832901  0.00347103    -0.23400
C675        C  0.11599396  0.60086832  0.01306027     0.19600
C676        C  0.12644315  0.58778347  0.04190300     0.24600
C677        C  0.10230215  0.57187451  0.06170995    -0.23300
C678        C  0.06833764  0.56604297  0.05072716     0.19600
F679        F  0.04470924  0.54927891  0.06881336    -0.13300
F680        F  0.02443404  0.57577273  0.01269708    -0.15700
F681        F  0.15939582  0.59356375  0.05146242    -0.15700
F682        F  0.14197663  0.61715705  0.49625067    -0.13300
C683        C  0.09282215  0.70011551  0.11145660     0.24700
C684        C  0.09735975  0.69329602  0.14344229    -0.23400
C685        C  0.09402541  0.72071462  0.16488387     0.19600
C686        C  0.08515409  0.75420043  0.15449778     0.24600
C687        C  0.07995562  0.76083577  0.12246193    -0.23300
C688        C  0.08437712  0.73346855  0.10104751     0.19600
F689        F  0.07971572  0.73859581  0.06991244    -0.13300
F690        F  0.09687215  0.67446220  0.09006034    -0.15700
F691        F  0.08182440  0.78006523  0.17577232    -0.15700
F692        F  0.09828331  0.71491969  0.19595899    -0.13300
C693        C  0.41761600  0.41934307  0.38869359     0.24700
C694        C  0.44996531  0.43055469  0.40005651    -0.23400
C695        C  0.45934910  0.46569232  0.39568230     0.19600
C696        C  0.43733627  0.48880623  0.37987170     0.24600
C697        C  0.40501235  0.47761953  0.36851002    -0.23300
C698        C  0.39515472  0.44276656  0.37360539     0.19600
F699        F  0.36394967  0.43124860  0.36352849    -0.13300
F700        F  0.40787973  0.38549923  0.39189625    -0.15700
F701        F  0.44727190  0.52260024  0.37663006    -0.15700
F702        F  0.49065998  0.47741443  0.40533384    -0.13300
C703        C  0.18075752  0.60550400  0.41633480     0.24700
C704        C  0.16709045  0.63784537  0.40665850    -0.23400
C705        C  0.18671657  0.65908416  0.38649682     0.19600
C706        C  0.21828839  0.64703359  0.37465377     0.24600
C707        C  0.23070156  0.61357076  0.38276550    -0.23300
C708        C  0.21202249  0.59348893  0.40453742     0.19600
F709        F  0.22368411  0.56182314  0.41415791    -0.13300
F710        F  0.16338042  0.58478738  0.43684335    -0.15700
F711        F  0.23568620  0.66745798  0.35395318    -0.15700
F712        F  0.17442066  0.69043413  0.37673521    -0.13300
C713        C  0.26450341  0.51629578  0.25055166     0.24700
C714        C  0.25338821  0.52060458  0.28152361    -0.23400
C715        C  0.21784118  0.52418861  0.28733944     0.19600
C716        C  0.19435392  0.52728406  0.26255625     0.24600
C717        C  0.20593016  0.52641239  0.23152284    -0.23300
C718        C  0.24093178  0.51928015  0.22569323     0.19600
F719        F  0.25294531  0.51940774  0.19592196    -0.13300
F720        F  0.29871234  0.51378497  0.24418856    -0.15700
F721        F  0.16100515  0.53540523  0.26884425    -0.15700
F722        F  0.20653055  0.52957496  0.31692336    -0.13300
C723        C  0.54699533  0.58986653  0.11320005     0.24700
C724        C  0.51344369  0.58944165  0.12569433    -0.23400
C725        C  0.50685037  0.56863207  0.15232409     0.19600
C726        C  0.53200872  0.54627286  0.16426175     0.24600
C727        C  0.56451547  0.54414179  0.15007099    -0.23300
C728        C  0.57239247  0.56713290  0.12522813     0.19600
F729        F  0.60356881  0.56541860  0.11089753    -0.13300
F730        F  0.55446319  0.61034705  0.08814443    -0.15700
F731        F  0.52398359  0.52521794  0.18884946    -0.15700
F732        F  0.47552695  0.56927051  0.16653690    -0.13300
C733        C  0.39139442  0.55187423  0.46263369     0.24700
C734        C  0.35846631  0.56070300  0.45077208    -0.23400
C735        C  0.33522858  0.57861554  0.46979547     0.19600
C736        C  0.34934830  0.58940833  0.00063619     0.24600
C737        C  0.38445128  0.58772192  0.00923670    -0.23300
C738        C  0.40244653  0.56486290  0.49141163     0.19600
F739        F  0.43512108  0.55834396  0.50132155    -0.13300
F740        F  0.41360730  0.53248325  0.44547147    -0.15700
F741        F  0.32596335  0.60546539  0.01925202    -0.15700
F742        F  0.30302325  0.58671641  0.45948810    -0.13300
C743        C  0.42327394  0.63604185  0.22140327     0.24700
C744        C  0.41154299  0.61659512  0.19578216    -0.23400
C745        C  0.39295879  0.58551075  0.20127895     0.19600
C746        C  0.38327166  0.57606938  0.23139653     0.24600
C747        C  0.39228716  0.59709296  0.25668946    -0.23300
C748        C  0.41381748  0.62618949  0.25179126     0.19600
F749        F  0.42352556  0.64649218  0.27607927    -0.13300
F750        F  0.44189194  0.66566626  0.21698932    -0.15700
F751        F  0.36408950  0.54680656  0.23580902    -0.15700
F752        F  0.38334699  0.56449933  0.17738290    -0.13300
C753        C  0.24659983  0.65057982  0.12624621     0.24700
C754        C  0.23470286  0.61583968  0.12450163    -0.23400
C755        C  0.25486655  0.59138248  0.10835151     0.19600
C756        C  0.28730511  0.60033937  0.09700637     0.24600
C757        C  0.30076833  0.63411791  0.10134037    -0.23300
C758        C  0.27941480  0.65963411  0.11475055     0.19600
F759        F  0.29081060  0.69287282  0.11810165    -0.13300
F760        F  0.22721658  0.67551573  0.14012590    -0.15700
F761        F  0.30588114  0.57524759  0.08241058    -0.15700
F762        F  0.24374411  0.55815217  0.10410660    -0.13300
C763        C  0.37668583  0.80681744  0.16653615     0.24700
C764        C  0.38076931  0.83557210  0.14615553    -0.23400
C765        C  0.39348245  0.82989670  0.11586472     0.21200
C766        C  0.40080142  0.79624520  0.10580249     0.24600
C767        C  0.39670682  0.76754755  0.12606444    -0.23300
C768        C  0.38499668  0.77311626  0.15665525     0.19600
F769        F  0.38053523  0.74584249  0.17663417    -0.13300
F770        F  0.36495487  0.81129389  0.19610216    -0.15700
F771        F  0.41222550  0.79181718  0.07614717    -0.15700
F772        F  0.39798203  0.85681231  0.09550606    -0.13300
C773        C  0.53918579  0.94428487  0.41021388     0.24700
C774        C  0.52161878  0.92214606  0.38980731    -0.23400
C775        C  0.53017158  0.92320508  0.35767218     0.19600
C776        C  0.55351569  0.94803443  0.34591840     0.24600
C777        C  0.57076762  0.97036653  0.36636953    -0.23300
C778        C  0.56436600  0.96722131  0.39876903     0.19600
F779        F  0.58199909  0.98700221  0.41949880    -0.13300
F780        F  0.53237340  0.94334794  0.44129391    -0.15700
F781        F  0.55977192  0.94975011  0.31476318    -0.15700
F782        F  0.51534620  0.90065876  0.33743853    -0.13300
C783        C  0.35031541  0.69809368  0.39108036     0.24700
C784        C  0.36450053  0.68495255  0.36341366    -0.23400
C785        C  0.38375663  0.70691361  0.34378799     0.19600
C786        C  0.39101813  0.74096009  0.35283837     0.24600
C787        C  0.37816143  0.75377994  0.38119351    -0.23300
C788        C  0.35671891  0.73260119  0.39974031     0.19600
F789        F  0.34404241  0.74452391  0.42720239    -0.13300
F790        F  0.33060999  0.67740459  0.40975570    -0.15700
F791        F  0.41161463  0.76109905  0.33444562    -0.15700
F792        F  0.39703264  0.69479817  0.31665095    -0.13300
C793        C  0.48131130  0.79017284  0.01076285     0.24700
C794        C  0.47469388  0.77751457  0.47629750    -0.23400
C795        C  0.47471318  0.74176005  0.46951787     0.19600
C796        C  0.47700821  0.71950712  0.99568047     0.24600
C797        C  0.47529180  0.72937742  0.02725435    -0.23300
C798        C  0.48034408  0.76476947  0.03463021     0.19600
F799        F  0.47981671  0.77526815  0.06481851    -0.13300
F800        F  0.47665716  0.82229366  0.51481776    -0.15700
F801        F  0.47310213  0.68554699  0.98761926    -0.15700
F802        F  0.47078102  0.73098667  0.43957458    -0.13300
C803        C  0.30800744  0.93586876  0.38457036     0.24700
C804        C  0.31266349  0.90425937  0.40089140    -0.23400
C805        C  0.28345856  0.88424831  0.40906475     0.19600
C806        C  0.25039910  0.89520404  0.40020496     0.24600
C807        C  0.24600662  0.92655932  0.38352429    -0.23300
C808        C  0.27509139  0.94693989  0.37612892     0.19600
F809        F  0.27193706  0.97700329  0.35943838    -0.13300
F810        F  0.33534404  0.95627024  0.37662472    -0.15700
F811        F  0.22272409  0.87516166  0.40789090    -0.15700
F812        F  0.28688781  0.85356616  0.42474849    -0.13300
C813        C  0.38085860  0.87727272  0.30412833     0.24700
C814        C  0.41435532  0.88699055  0.31297421    -0.23400
C815        C  0.43334413  0.90984668  0.29383819     0.19600
C816        C  0.41952347  0.92200703  0.26573448     0.24600
C817        C  0.38587189  0.91262271  0.25693423    -0.23300
C818        C  0.36654624  0.89024146  0.27645314     0.19600
F819        F  0.33404864  0.88034127  0.26849017    -0.13300
F820        F  0.36139564  0.85661184  0.32306223    -0.15700
F821        F  0.43875882  0.94363243  0.24749831    -0.15700
F822        F  0.46516468  0.92079676  0.30248096    -0.13300
C823        C  0.36361898  0.93545804  0.00824900     0.24700
C824        C  0.39603038  0.91957592  0.00471814    -0.23400
C825        C  0.41916392  0.91893904  0.02975587     0.19600
C826        C  0.40968844  0.93299663  0.05847060     0.24600
C827        C  0.37629977  0.94711245  0.06288845    -0.23300
C828        C  0.35362394  0.94880110  0.03720439     0.19600
F829        F  0.32157402  0.96266266  0.04018855    -0.13300
F830        F  0.34120689  0.93568267  0.48444998    -0.15700
F831        F  0.43283178  0.93120393  0.08226843    -0.15700
F832        F  0.45084874  0.90431036  0.02645526    -0.13300
O833        O  0.40561156  0.91872814  0.95043273    -0.84200
O834        O  0.47060392  0.91487303  0.92083965    -0.81300
C835        C  0.49397077  0.90363689  0.90294868     0.99200
O836        O  0.49043998  0.87446412  0.89000017    -0.81300
O837        O  0.47957942  0.82204529  0.93645030    -0.84000
C838        C  0.46250801  0.80455584  0.95654040     1.03800
O839        O  0.42981281  0.80487490  0.95653817    -0.76700
O840        O  0.40779943  0.86885736  0.97602425    -0.76900
C841        C  0.40433169  0.90152425  0.97563534     1.03700
O842        O  0.37412383  0.90215650  0.89258706    -0.84200
O843        O  0.43617327  0.90307617  0.86322214    -0.81300
C844        C  0.43109994  0.87778498  0.84515646     0.99200
O845        O  0.43448687  0.84673339  0.85492085    -0.81300
O846        O  0.43174572  0.79106555  0.89605307    -0.83900
C847        C  0.39997159  0.78470092  0.89548269     1.03700
O848        O  0.37916564  0.80642801  0.90691001    -0.76800
O849        O  0.35440556  0.86879895  0.93023779    -0.76900
C850        C  0.34922697  0.88991201  0.90802247     1.03700
Cr851      Cr  0.42198110  0.90603077  0.90776504     1.93700
Cr852      Cr  0.45685427  0.83571422  0.89593537     1.93200
Cr853      Cr  0.39519570  0.83897671  0.94032944     1.39100
O854        O  0.42489451  0.86047961  0.91524782    -1.22000
O855        O  0.41506849  0.59641388  0.55425340    -0.84200
O856        O  0.45268130  0.59387302  0.61087778    -0.81300
C857        C  0.48212505  0.60801370  0.61086553     0.99200
O858        O  0.48545789  0.63953450  0.60265098    -0.81300
O859        O  0.46409122  0.70495508  0.57777382    -0.84000
C860        C  0.45650306  0.70364173  0.54872094     1.03800
O861        O  0.43176499  0.68498236  0.53945677    -0.76700
O862        O  0.37941566  0.63710381  0.53856446    -0.76900
C863        C  0.39339447  0.60778875  0.53463372     1.03700
O864        O  0.35517569  0.61370870  0.58952271    -0.84200
O865        O  0.39338917  0.61702137  0.64176192    -0.81300
C866        C  0.41382157  0.62797604  0.66225369     0.99200
O867        O  0.43949844  0.64699649  0.65479473    -0.81300
O868        O  0.41709956  0.70975684  0.63084824    -0.83900
C869        C  0.40231636  0.73140449  0.61320845     1.03700
O870        O  0.39648442  0.72375077  0.58519104    -0.76800
O871        O  0.34794805  0.67025193  0.59042203    -0.76900
C872        C  0.33577855  0.63979275  0.59326512     1.03700
Cr873      Cr  0.40543438  0.60867693  0.59838821     1.93700
Cr874      Cr  0.44905351  0.67378997  0.61454075     1.93200
Cr875      Cr  0.39090831  0.67721759  0.56557776     1.39100
O876        O  0.41576377  0.65310404  0.59271516    -1.22000
O877        O  0.33760839  0.58683910  0.78753486    -0.84200
O878        O  0.27390621  0.56777887  0.81035845    -0.81300
C879        C  0.27428420  0.53498317  0.80826785     0.99200
O880        O  0.29282959  0.51685952  0.82658591    -0.81300
O881        O  0.34731226  0.50234674  0.86958386    -0.84000
C882        C  0.37714770  0.50178208  0.85763872     1.03800
O883        O  0.38706471  0.52659456  0.84027786    -0.76700
O884        O  0.38785399  0.59237165  0.81093559    -0.76900
C885        C  0.36981418  0.59153369  0.78628258     1.03700
O886        O  0.34110591  0.64172251  0.83209563    -0.84200
O887        O  0.28217406  0.61755633  0.85918997    -0.81300
C888        C  0.26072321  0.59773853  0.87240936     0.99200
O889        O  0.26484675  0.56499230  0.87157454    -0.81300
O890        O  0.32196955  0.55453705  0.90936862    -0.83900
C891        C  0.35305354  0.55741841  0.91820418     1.03700
O892        O  0.37725981  0.55853872  0.89855754    -0.76800
O893        O  0.37298123  0.62230586  0.87060046    -0.76900
C894        C  0.36039434  0.64727591  0.85520684     1.03700
Cr895      Cr  0.31049352  0.60088076  0.82423352     1.93700
Cr896      Cr  0.30852504  0.53700593  0.86745402     1.93200
Cr897      Cr  0.37766969  0.57461954  0.85431208     1.39100
O898        O  0.33245066  0.57055542  0.84852713    -1.22000
O899        O  0.12364741  0.59427089  0.72463625    -0.84200
O900        O  0.18712477  0.57306249  0.70413848    -0.81300
C901        C  0.18551219  0.54023433  0.70708847     0.99200
O902        O  0.16701002  0.52238215  0.68873809    -0.81300
O903        O  0.11388486  0.50841014  0.64500666    -0.84000
C904        C  0.08446352  0.50842173  0.65771510     1.03800
O905        O  0.07523222  0.53388673  0.67419403    -0.76700
O906        O  0.07418011  0.60049332  0.70003590    -0.76900
C907        C  0.09156365  0.59948672  0.72505136     1.03700
O908        O  0.12147792  0.64813717  0.67800782    -0.84200
O909        O  0.18163448  0.62213001  0.65301420    -0.81300
C910        C  0.20244701  0.60116152  0.64065084     0.99200
O911        O  0.19773352  0.56864824  0.64362710    -0.81300
O912        O  0.14186927  0.55988749  0.60454089    -0.83900
C913        C  0.11112544  0.56338796  0.59497039     1.03700
O914        O  0.08635015  0.56324848  0.61408791    -0.76800
O915        O  0.09081534  0.62787718  0.63935002    -0.76900
C916        C  0.10283515  0.65333295  0.65418659     1.03700
Cr917      Cr  0.15183101  0.60703207  0.68811101     1.93700
Cr918      Cr  0.15340116  0.54212521  0.64706750     1.93200
Cr919      Cr  0.08505698  0.58099951  0.65771596     1.39100
O920        O  0.12992802  0.57653166  0.66446627    -1.22000
O921        O  0.05966229  0.92983863  0.55396004    -0.84200
O922        O  0.02406877  0.93192601  0.61131762    -0.81300
C923        C  0.99403479  0.91936676  0.61102862     0.99200
O924        O  0.98918902  0.88843739  0.60194514    -0.81300
O925        O  0.00752510  0.82221788  0.57721113    -0.84000
C926        C  0.01499913  0.82266828  0.54820417     1.03800
O927        O  0.03969681  0.84106689  0.53821349    -0.76700
O928        O  0.09320280  0.88824290  0.53668990    -0.76900
C929        C  0.07975243  0.91804286  0.53332042     1.03700
O930        O  0.11938028  0.90938194  0.58757312    -0.84200
O931        O  0.08269619  0.90487840  0.64097867    -0.81300
C932        C  0.06234993  0.89279628  0.66123999     0.99200
O933        O  0.03470573  0.87736917  0.65353192    -0.81300
O934        O  0.05447553  0.81451973  0.62953782    -0.83900
C935        C  0.06898231  0.79294259  0.61191185     1.03700
O936        O  0.07501989  0.80095147  0.58388181    -0.76800
O937        O  0.12491287  0.85272948  0.58830187    -0.76900
C938        C  0.13792916  0.88272126  0.59118476     1.03700
Cr939      Cr  0.07000849  0.91571042  0.59777415     1.93700
Cr940      Cr  0.02391098  0.85219231  0.61347044     1.93200
Cr941      Cr  0.08134006  0.84762495  0.56392889     1.39100
O942        O  0.05777200  0.87195685  0.59152074    -1.22000
O943        O  0.04784153  0.60790518  0.95687103    -0.84200
O944        O  0.01039226  0.60504499  0.90018789    -0.81300
C945        C  0.98155068  0.62008545  0.89984447     0.99200
O946        O  0.97930298  0.65184122  0.90727892    -0.81300
O947        O  0.00294496  0.71683898  0.93088886    -0.84000
C948        C  0.01167335  0.71695170  0.95961941     1.03800
O949        O  0.03619437  0.69816336  0.96938248    -0.76700
O950        O  0.08553766  0.64715682  0.97124388    -0.76900
C951        C  0.06990851  0.61885566  0.97622593     1.03700
O952        O  0.10823283  0.62102063  0.92093563    -0.84200
O953        O  0.06963991  0.62517172  0.86836743    -0.81300
C954        C  0.04975657  0.63770795  0.84793100     0.99200
O955        O  0.02549455  0.65844148  0.85517669    -0.81300
O956        O  0.04853946  0.72168806  0.87793692    -0.83900
C957        C  0.06620725  0.74177215  0.89477129     1.03700
O958        O  0.07371187  0.73329032  0.92230919    -0.76800
O959        O  0.11856146  0.67697873  0.91810179    -0.76900
C960        C  0.12899863  0.64586809  0.91623066     1.03700
Cr961      Cr  0.05786998  0.61855690  0.91226536     1.93700
Cr962      Cr  0.01666108  0.68539285  0.89486989     1.93200
Cr963      Cr  0.07623112  0.68704720  0.94302547     1.39100
O964        O  0.04971796  0.66374119  0.91668749    -1.22000
O965        O  0.34407137  0.92662829  0.72495485    -0.84200
O966        O  0.28287961  0.94955077  0.70035235    -0.81300
C967        C  0.28383896  0.98250142  0.70224404     0.99200
O968        O  0.30308493  0.00036916  0.68421542    -0.81300
O969        O  0.35840209  0.01382577  0.64217830    -0.84000
C970        C  0.38633747  0.01605429  0.65731264     1.03800
O971        O  0.39502940  0.99124425  0.67527034    -0.76700
O972        O  0.39551542  0.92467738  0.70333283    -0.76900
C973        C  0.37612684  0.92195503  0.72702599     1.03700
O974        O  0.34960367  0.87463063  0.67854199    -0.84200
O975        O  0.29163928  0.90015418  0.65032991    -0.81300
C976        C  0.27076057  0.92074106  0.63752175     0.99200
O977        O  0.27521806  0.95321558  0.63976088    -0.81300
O978        O  0.33347356  0.95936825  0.60288845    -0.83900
C979        C  0.36487746  0.95504558  0.59560404     1.03700
O980        O  0.38810095  0.95960503  0.61585445    -0.76800
O981        O  0.38396807  0.89566423  0.64258988    -0.76900
C982        C  0.37002433  0.87003287  0.65604091     1.03700
Cr983      Cr  0.31879486  0.91533840  0.68671269     1.93700
Cr984      Cr  0.31928451  0.97957375  0.64391282     1.93200
Cr985      Cr  0.38730303  0.94310245  0.65999815     1.39100
O986        O  0.34202478  0.94630780  0.66411070    -1.22000
O987        O  0.13837760  0.93135867  0.78885363    -0.84200
O988        O  0.19856767  0.95722927  0.81086255    -0.81300
C989        C  0.19582808  0.98939397  0.80447597     0.99200
O990        O  0.17656363  0.00885906  0.82075302    -0.81300
O991        O  0.12239330  0.02613470  0.86269520    -0.84000
C992        C  0.09368677  0.02611344  0.84891856     1.03800
O993        O  0.08524250  0.00031263  0.83251565    -0.76700
O994        O  0.08573197  0.93289995  0.80777267    -0.76900
C995        C  0.10632697  0.92812359  0.78522048     1.03700
O996        O  0.13337878  0.88350691  0.83943202    -0.84200
O997        O  0.19047714  0.91356082  0.86591735    -0.81300
C998        C  0.21235200  0.93577913  0.87434702     0.99200
O999        O  0.20643890  0.96776720  0.86972452    -0.81300
O1000       O  0.14774966  0.97753936  0.90565554    -0.83900
C1001       C  0.11655703  0.97358149  0.91392906     1.03700
O1002       O  0.09249186  0.97189425  0.89392842    -0.76800
O1003       O  0.09409112  0.90629409  0.86984329    -0.76900
C1004       C  0.10919233  0.88012225  0.85884973     1.03700
Cr1005     Cr  0.16318821  0.92400762  0.82798463     1.93700
Cr1006     Cr  0.16152956  0.99251754  0.86318601     1.93200
Cr1007     Cr  0.09316831  0.95326149  0.85046057     1.39100
O1008       O  0.13890551  0.95650577  0.84708099    -1.22000
O1009       O  0.57638605  0.44592054  0.71161955    -0.84200
O1010       O  0.57044616  0.48228889  0.65510857    -0.81300
C1011       C  0.58460828  0.51193678  0.65573438     0.99200
O1012       O  0.61679080  0.51482480  0.65975212    -0.81300
O1013       O  0.68243415  0.49321231  0.68070103    -0.84000
C1014       C  0.68281460  0.48680302  0.70995688     1.03800
O1015       O  0.66526320  0.46199231  0.72130441    -0.76700
O1016       O  0.61697463  0.40970702  0.72627256    -0.76900
C1017       C  0.58888983  0.42510939  0.73156149     1.03700
O1018       O  0.59011901  0.38371043  0.67716933    -0.84200
O1019       O  0.59114521  0.42105382  0.62362585    -0.81300
C1020       C  0.60333946  0.44015921  0.60238460     0.99200
O1021       O  0.62041463  0.46745387  0.60854298    -0.81300
O1022       O  0.68356436  0.44435479  0.62894161    -0.83900
C1023       C  0.70547460  0.42915671  0.64590491     1.03700
O1024       O  0.69928477  0.42436829  0.67437860    -0.76800
O1025       O  0.64583178  0.37618874  0.67295259    -0.76900
C1026       C  0.61545637  0.36419486  0.67113844     1.03700
Cr1027     Cr  0.58536614  0.43450989  0.66721129     1.93700
Cr1028     Cr  0.64927918  0.47748856  0.64658139     1.93200
Cr1029     Cr  0.65490613  0.41995845  0.69670542     1.39100
O1030       O  0.62974362  0.44466957  0.67032808    -1.22000
O1031       O  0.88759891  0.43788513  0.80627243    -0.84200
O1032       O  0.88387846  0.50302713  0.83561780    -0.81300
C1033       C  0.87530847  0.52679909  0.85430613     0.99200
O1034       O  0.84754071  0.52346068  0.86937016    -0.81300
O1035       O  0.79441426  0.51177786  0.82428426    -0.84000
C1036       C  0.77731994  0.49435933  0.80434401     1.03800
O1037       O  0.77599692  0.46133008  0.80558174    -0.76700
O1038       O  0.83640443  0.43307392  0.78445590    -0.76900
C1039       C  0.86885427  0.43142008  0.78284429     1.03700
O1040       O  0.87642272  0.40532283  0.86488492    -0.84200
O1041       O  0.87585542  0.46795320  0.89435109    -0.81300
C1042       C  0.85194095  0.46297961  0.91398696     0.99200
O1043       O  0.82065190  0.46779657  0.90617534    -0.81300
O1044       O  0.76260506  0.46556986  0.86680606    -0.83900
C1045       C  0.75581573  0.43350971  0.86786938     1.03700
O1046       O  0.77748719  0.41219112  0.85755081    -0.76800
O1047       O  0.83639633  0.38397552  0.83402436    -0.76900
C1048       C  0.86079992  0.37976332  0.85312736     1.03700
Cr1049     Cr  0.87712702  0.45398578  0.84961320     1.93700
Cr1050     Cr  0.80830172  0.48962426  0.86496297     1.93200
Cr1051     Cr  0.80843136  0.42542431  0.82242824     1.39100
O1052       O  0.83155455  0.45625355  0.84513111    -1.22000
O1053       O  0.90362647  0.37807822  0.53306726    -0.84200
O1054       O  0.92454011  0.31358141  0.55267124    -0.81300
C1055       C  0.95721382  0.31371011  0.55363465     0.99200
O1056       O  0.97328253  0.33062982  0.57450394    -0.81300
O1057       O  0.98280496  0.38400753  0.61903687    -0.84000
C1058       C  0.98486083  0.41342139  0.60560062     1.03800
O1059       O  0.96075482  0.42373379  0.58789916    -0.76700
O1060       O  0.89540275  0.42651873  0.55878721    -0.76900
C1061       C  0.89697733  0.41013586  0.53331698     1.03700
O1062       O  0.84763196  0.37698609  0.57721394    -0.84200
O1063       O  0.87215914  0.31459285  0.60003716    -0.81300
C1064       C  0.89228346  0.29304520  0.61272700     0.99200
O1065       O  0.92416023  0.29913354  0.61478094    -0.81300
O1066       O  0.92731540  0.35509174  0.65541267    -0.83900
C1067       C  0.92410993  0.38610998  0.66496040     1.03700
O1068       O  0.92818702  0.41128344  0.64621683    -0.76800
O1069       O  0.86603218  0.40689450  0.61730549    -0.76900
C1070       C  0.84161276  0.39442589  0.60154997     1.03700
Cr1071     Cr  0.88927302  0.34750558  0.56783003     1.93700
Cr1072     Cr  0.94969298  0.34415547  0.61436087     1.93200
Cr1073     Cr  0.91306004  0.41365121  0.60160101     1.39100
O1074       O  0.91761825  0.36846695  0.59422673    -1.22000
O1075       O  0.90859800  0.16125310  0.97573613    -0.84200
O1076       O  0.93408212  0.22373857  0.95422451    -0.81300
C1077       C  0.96681784  0.22348279  0.95504261     0.99200
O1078       O  0.98415882  0.20526144  0.93593652    -0.81300
O1079       O  0.99531689  0.15172108  0.89079732    -0.84000
C1080       C  0.99747325  0.12232663  0.90400214     1.03800
O1081       O  0.97421450  0.11269570  0.92280566    -0.76700
O1082       O  0.90927369  0.11001616  0.95328553    -0.76900
C1083       C  0.90496948  0.12859052  0.97741279     1.03700
O1084       O  0.85799635  0.16093716  0.92772069    -0.84200
O1085       O  0.88511185  0.22095367  0.90305600    -0.81300
C1086       C  0.90597627  0.24292703  0.89201531     0.99200
O1087       O  0.93782328  0.23686952  0.89366751    -0.81300
O1088       O  0.94036408  0.17964254  0.85455802    -0.83900
C1089       C  0.93607849  0.14849988  0.84567029     1.03700
O1090       O  0.94005123  0.12327385  0.86450689    -0.76800
O1091       O  0.87848969  0.12380198  0.89381697    -0.76900
C1092       C  0.85343719  0.13809852  0.90712187     1.03700
Cr1093     Cr  0.89902992  0.18989057  0.93822146     1.93700
Cr1094     Cr  0.96212771  0.19123248  0.89545837     1.93200
Cr1095     Cr  0.92600314  0.12122361  0.90950788     1.39100
O1096       O  0.92926471  0.16711009  0.91503857    -1.22000
O1097       O  0.58910424  0.08471456  0.80614603    -0.84200
O1098       O  0.59109651  0.02098465  0.83792321    -0.81300
C1099       C  0.59920815  0.99831005  0.85802780     0.99200
O1100       O  0.62700026  0.00152925  0.87279167    -0.81300
O1101       O  0.68086369  0.01470535  0.82792759    -0.84000
C1102       C  0.69944530  0.03291425  0.80947366     1.03800
O1103       O  0.70096003  0.06584740  0.81199195    -0.76700
O1104       O  0.64183173  0.09270798  0.78870734    -0.76900
C1105       C  0.60984498  0.09096283  0.78403240     1.03700
O1106       O  0.59455308  0.11954338  0.86466842    -0.84200
O1107       O  0.59614642  0.05793217  0.89569065    -0.81300
C1108       C  0.61956840  0.05992342  0.91626774     0.99200
O1109       O  0.65120526  0.05592132  0.90917122    -0.81300
O1110       O  0.71077081  0.05992487  0.87186800    -0.83900
C1111       C  0.71687007  0.09199453  0.87395804     1.03700
O1112       O  0.69458732  0.11325609  0.86452945    -0.76800
O1113       O  0.63749498  0.14190109  0.83794453    -0.76900
C1114       C  0.61126271  0.14560942  0.85498397     1.03700
Cr1115     Cr  0.59662930  0.07051319  0.85059879     1.93700
Cr1116     Cr  0.66554773  0.03551539  0.86857950     1.93200
Cr1117     Cr  0.66666437  0.10078467  0.82765046     1.39100
O1118       O  0.64253629  0.06909061  0.84854183    -1.22000
O1119       O  0.89658557  0.10244813  0.70420515    -0.84200
O1120       O  0.89723862  0.03586469  0.67784011    -0.81300
C1121       C  0.88900326  0.01038635  0.66083556     0.99200
O1122       O  0.86064433  0.01103137  0.64622614    -0.81300
O1123       O  0.80643645  0.02113415  0.68969204    -0.84000
C1124       C  0.78758123  0.03794972  0.70858841     1.03800
O1125       O  0.78528262  0.07087784  0.70682367    -0.76700
O1126       O  0.84665390  0.09770246  0.72826727    -0.76900
C1127       C  0.87859823  0.10393998  0.72883322     1.03700
O1128       O  0.87996930  0.13001726  0.64338652    -0.84200
O1129       O  0.88651840  0.06610968  0.61758114    -0.81300
C1130       C  0.86193325  0.06949612  0.59843768     0.99200
O1131       O  0.83116670  0.06433359  0.60730012    -0.81300
O1132       O  0.77442256  0.06672446  0.64605526    -0.83900
C1133       C  0.76818563  0.09881807  0.64333479     1.03700
O1134       O  0.78834772  0.12049785  0.65549760    -0.76800
O1135       O  0.84634479  0.14917409  0.68046100    -0.76900
C1136       C  0.86495131  0.15479250  0.65682303     1.03700
Cr1137     Cr  0.88678070  0.08311619  0.66161219     1.93700
Cr1138     Cr  0.81993702  0.04303008  0.64882314     1.93200
Cr1139     Cr  0.81838838  0.10706737  0.69094225     1.39100
O1140       O  0.84195372  0.07741510  0.66777892    -1.22000
O1141       O  0.56524694  0.36034970  0.97635035    -0.84200
O1142       O  0.53973758  0.30017097  0.95366534    -0.81300
C1143       C  0.50728580  0.30272536  0.95673094     0.99200
O1144       O  0.48958133  0.32166241  0.93845527    -0.81300
O1145       O  0.47653554  0.37678814  0.89631056    -0.84000
C1146       C  0.47495211  0.40487783  0.91136539     1.03800
O1147       O  0.49956351  0.41322121  0.92916526    -0.76700
O1148       O  0.56536603  0.41312470  0.95651816    -0.76900
C1149       C  0.56839020  0.39271139  0.97966181     1.03700
O1150       O  0.61565257  0.36441620  0.92773039    -0.84200
O1151       O  0.58709248  0.30577244  0.90160615    -0.81300
C1152       C  0.56570100  0.28389327  0.89148789     0.99200
O1153       O  0.53384896  0.29070582  0.89324542    -0.81300
O1154       O  0.52859987  0.35118726  0.85674360    -0.83900
C1155       C  0.53253208  0.38295115  0.84911601     1.03700
O1156       O  0.53055264  0.40668789  0.86932600    -0.76800
O1157       O  0.59400531  0.40349143  0.89578467    -0.76900
C1158       C  0.61970250  0.38835785  0.90766032     1.03700
Cr1159     Cr  0.57451810  0.33469750  0.93800263     1.93700
Cr1160     Cr  0.50958137  0.33681104  0.89773878     1.93200
Cr1161     Cr  0.54702346  0.40534677  0.91332470     1.39100
O1162       O  0.54374820  0.35921257  0.91665779    -1.22000
O1163       O  0.59100160  0.14493365  0.53645307    -0.84200
O1164       O  0.54196239  0.19532161  0.54316168    -0.81300
C1165       C  0.51640609  0.21112991  0.55449131     0.99200
O1166       O  0.50912180  0.20894682  0.58345406    -0.81300
O1167       O  0.48851872  0.14165499  0.60343960    -0.84000
C1168       C  0.49174629  0.10972710  0.61019162     1.03800
O1169       O  0.52097519  0.09554648  0.60886196    -0.76700
O1170       O  0.55421442  0.10426423  0.55058225    -0.76900
C1171       C  0.57526916  0.11671353  0.53094405     1.03700
O1172       O  0.62606875  0.17101987  0.59090358    -0.84200
O1173       O  0.58098823  0.22669728  0.59178072    -0.81300
C1174       C  0.57493177  0.23133287  0.62032606     0.99200
O1175       O  0.55736055  0.20941347  0.63541628    -0.81300
O1176       O  0.53682830  0.14487549  0.65457385    -0.83900
C1177       C  0.56374138  0.12686406  0.65990608     1.03700
O1178       O  0.58199145  0.11548800  0.63796122    -0.76800
O1179       O  0.61669773  0.11583806  0.58346085    -0.76900
C1180       C  0.63681263  0.13998937  0.59143682     1.03700
Cr1181     Cr  0.58298321  0.18252220  0.56753189     1.93700
Cr1182     Cr  0.52531390  0.17485565  0.61699503     1.93200
Cr1183     Cr  0.56720659  0.11125743  0.59479269     1.39100
O1184       O  0.55781574  0.15632322  0.59297217    -1.22000
C1185       C  0.48570325  0.24612356  0.97611569     0.24700
C1186       C  0.49137640  0.28168264  0.98159532    -0.23400
C1187       C  0.49368656  0.29354052  0.01249522     0.19600
C1188       C  0.50157429  0.27152659  0.53885063     0.24600
C1189       C  0.49820934  0.23558426  0.53348287    -0.23300
C1190       C  0.48785798  0.22420147  0.50375184     0.19600
F1191       F  0.48439399  0.18960126  0.49802969    -0.13300
F1192       F  0.48374990  0.23412747  0.94640761    -0.15700
F1193       F  0.51253043  0.28315184  0.56706137    -0.15700
F1194       F  0.50003106  0.32773057  0.01821187    -0.13300
C1195       C  0.69607546  0.15595191  0.61124575     0.24700
C1196       C  0.67212717  0.13058841  0.60160775    -0.23400
C1197       C  0.68137475  0.09508753  0.60368924     0.19600
C1198       C  0.71280740  0.08512629  0.61639923     0.24600
C1199       C  0.73620695  0.11027805  0.62742618    -0.23300
C1200       C  0.72789763  0.14587981  0.62398081     0.19600
F1201       F  0.75019199  0.17103969  0.63341830    -0.13300
F1202       F  0.68853265  0.19042166  0.60900560    -0.15700
F1203       F  0.71963562  0.05046468  0.61860836    -0.15700
F1204       F  0.65959796  0.06936140  0.59439049    -0.13300
C1205       C  0.55339025  0.22198280  0.87539959     0.24700
C1206       C  0.57744241  0.24914353  0.88014889    -0.23400
C1207       C  0.61283952  0.24180237  0.87605198     0.19600
C1208       C  0.62378813  0.20830678  0.86767465     0.24600
C1209       C  0.59972119  0.18121535  0.86347629    -0.23300
C1210       C  0.56443103  0.18847735  0.86740463     0.19600
F1211       F  0.54038023  0.16316951  0.86310673    -0.13300
F1212       F  0.51901864  0.22743578  0.87912068    -0.15700
F1213       F  0.65813495  0.20209609  0.86475151    -0.15700
F1214       F  0.63709045  0.26686717  0.88050867    -0.13300
C1215       C  0.70819393  0.01594782  0.75415548     0.24700
C1216       C  0.72121779  0.01746502  0.78478141    -0.23400
C1217       C  0.75722901  0.01679671  0.78918253     0.19600
C1218       C  0.77970530  0.01830120  0.76349335     0.24600
C1219       C  0.76654703  0.02059626  0.73297228    -0.23300
C1220       C  0.73068067  0.01761789  0.72845007     0.19600
F1221       F  0.71722043  0.02067025  0.69926631    -0.13300
F1222       F  0.67361248  0.01748613  0.74912739    -0.15700
F1223       F  0.81411005  0.02208849  0.76858509    -0.15700
F1224       F  0.77057087  0.01919537  0.81840469    -0.13300
C1225       C  0.57314946  0.06712617  0.95655881     0.24700
C1226       C  0.60863975  0.06798930  0.94850568    -0.23400
C1227       C  0.63251851  0.08068304  0.97033956     0.19600
C1228       C  0.62110805  0.09746448  0.49471153     0.24600
C1229       C  0.58605407  0.09683494  0.50349368    -0.23300
C1230       C  0.56171548  0.08127065  0.98464974     0.19600
F1231       F  0.52737875  0.08223198  0.99089767    -0.13300
F1232       F  0.54912037  0.05404002  0.93670652    -0.15700
F1233       F  0.64510729  0.11364313  0.51269893    -0.15700
F1234       F  0.66686011  0.08130480  0.96399993    -0.13300
C1235       C  0.62070571  0.10167968  0.72737408     0.24700
C1236       C  0.59694319  0.09810831  0.75209659    -0.23400
C1237       C  0.56163573  0.10444110  0.74620111     0.19600
C1238       C  0.55054430  0.11440806  0.71631126     0.24600
C1239       C  0.57453743  0.11810844  0.69193609    -0.23300
C1240       C  0.60967607  0.11177342  0.69786893     0.19600
F1241       F  0.63382205  0.11607140  0.67515445    -0.13300
F1242       F  0.65500198  0.09588700  0.73156921    -0.15700
F1243       F  0.51637881  0.11986584  0.71114288    -0.15700
F1244       F  0.53787015  0.10169124  0.76936299    -0.13300
C1245       C  0.91063186  0.08591949  0.52305329     0.24700
C1246       C  0.89151391  0.11349622  0.51006778    -0.23400
C1247       C  0.86119911  0.12454136  0.52509393     0.19600
C1248       C  0.85023221  0.10840905  0.55276189     0.24600
C1249       C  0.86994181  0.08160837  0.56641108    -0.23300
C1250       C  0.90026129  0.07047834  0.55129406     0.19600
F1251       F  0.91999642  0.04482741  0.56404296    -0.13300
F1252       F  0.93996403  0.07480728  0.50895855    -0.15700
F1253       F  0.82141329  0.12039418  0.56716227    -0.15700
F1254       F  0.87548393  0.16870581  0.02679663    -0.13300
C1255       C  0.94056637  0.11388109  0.79664868     0.24700
C1256       C  0.92458568  0.14059741  0.81371210    -0.23400
C1257       C  0.89399680  0.15559967  0.80229188     0.19600
C1258       C  0.87886359  0.14313761  0.77488606     0.24600
C1259       C  0.89456366  0.11609566  0.75803892    -0.23300
C1260       C  0.92599750  0.10218226  0.76865018     0.19600
F1261       F  0.94178309  0.07631838  0.75258816    -0.13300
F1262       F  0.96999061  0.09878017  0.80741434    -0.15700
F1263       F  0.84890674  0.15764801  0.76465497    -0.15700
F1264       F  0.87766894  0.18088354  0.81867211    -0.13300
C1265       C  0.77867318  0.07994991  0.88688847     0.24700
C1266       C  0.75122048  0.10396349  0.88445944    -0.23400
C1267       C  0.75779212  0.13953866  0.88992786     0.19600
C1268       C  0.79107778  0.15077554  0.89752359     0.24600
C1269       C  0.81832944  0.12675138  0.89931782    -0.23300
C1270       C  0.81186651  0.09132179  0.89394613     0.19600
F1271       F  0.83768856  0.06746853  0.89601379    -0.13300
F1272       F  0.77380980  0.04539278  0.88177224    -0.15700
F1273       F  0.79691323  0.18527794  0.90205933    -0.15700
F1274       F  0.73217771  0.16355145  0.88764765    -0.13300
C1275       C  0.88235636  0.23081581  0.60248602     0.24700
C1276       C  0.87985283  0.25899245  0.62297409    -0.23400
C1277       C  0.87120297  0.25322425  0.65430033     0.19600
C1278       C  0.86571892  0.21932110  0.66531550     0.24600
C1279       C  0.86935154  0.19074128  0.64507569    -0.23300
C1280       C  0.87717898  0.19688872  0.61340726     0.19600
F1281       F  0.88012355  0.17011205  0.59303251    -0.13300
F1282       F  0.89123751  0.23613854  0.57214709    -0.15700
F1283       F  0.85857779  0.21440797  0.69606904    -0.15700
F1284       F  0.86956267  0.28028159  0.67446759    -0.13300
C1285       C  0.97560633  0.30466791  0.49885290     0.24700
C1286       C  0.97507862  0.29247451  0.52985763    -0.23400
C1287       C  0.98026934  0.25667723  0.53553020     0.19600
C1288       C  0.98219253  0.23312220  0.51053337     0.24600
C1289       C  0.98298224  0.24700704  0.97807135    -0.23300
C1290       C  0.98177234  0.28311832  0.97214345     0.19600
F1291       F  0.97785396  0.29504626  0.94242277    -0.13300
F1292       F  0.97448054  0.34110096  0.99045069    -0.15700
F1293       F  0.98240981  0.19836760  0.51673236    -0.15700
F1294       F  0.97886665  0.24401839  0.56518693    -0.13300
C1295       C  0.91382372  0.43566597  0.74062697     0.24700
C1296       C  0.88494689  0.41893231  0.75368341    -0.23400
C1297       C  0.87208690  0.38860321  0.73942483     0.19600
C1298       C  0.88676983  0.37614454  0.71180509     0.24600
C1299       C  0.91410963  0.39421393  0.69750173    -0.23300
C1300       C  0.92791041  0.42377714  0.71247387     0.19600
F1301       F  0.95469262  0.44153284  0.69948188    -0.13300
F1302       F  0.92747663  0.46431258  0.75442186    -0.15700
F1303       F  0.87276901  0.34770133  0.69802638    -0.15700
F1304       F  0.84530290  0.37085003  0.75242321    -0.13300
C1305       C  0.90234967  0.41686902  0.97748116     0.24700
C1306       C  0.88807305  0.42756250  0.50373625    -0.23400
C1307       C  0.85508487  0.44210821  0.49945651     0.19600
C1308       C  0.84312587  0.45853109  0.97258684     0.24600
C1309       C  0.86209926  0.45054403  0.94555943    -0.23300
C1310       C  0.89199513  0.42977330  0.94852799     0.19600
F1311       F  0.91088990  0.42080772  0.92314165    -0.13300
F1312       F  0.93098266  0.39660450  0.97918543    -0.15700
F1313       F  0.81432565  0.47856390  0.97067329    -0.15700
F1314       F  0.83252772  0.44340789  0.52365064    -0.13300
C1315       C  0.90718966  0.33650573  0.86307865     0.24700
C1316       C  0.87189249  0.34419612  0.86124568    -0.23400
C1317       C  0.84760498  0.31765997  0.86684284     0.19600
C1318       C  0.85850236  0.28433506  0.87600336     0.24600
C1319       C  0.89397157  0.27689952  0.87923543    -0.23300
C1320       C  0.91818263  0.30320265  0.87164838     0.19600
F1321       F  0.95268952  0.29712711  0.87295615    -0.13300
F1322       F  0.93116273  0.36120976  0.85604920    -0.15700
F1323       F  0.83428403  0.25960201  0.88205286    -0.15700
F1324       F  0.81327297  0.32433793  0.86454496    -0.13300
C1325       C  0.69329278  0.44485165  0.87841309     0.24700
C1326       C  0.72151365  0.42171619  0.87926255    -0.23400
C1327       C  0.71609890  0.38740088  0.89010134     0.19600
C1328       C  0.68317448  0.37652790  0.89980060     0.24600
C1329       C  0.65491297  0.39959348  0.89833647    -0.23300
C1330       C  0.66047777  0.43389590  0.88763345     0.19600
F1331       F  0.63416467  0.45724462  0.88642450    -0.13300
F1332       F  0.69709871  0.47809450  0.86789132    -0.15700
F1333       F  0.67883384  0.34318228  0.90987996    -0.15700
F1334       F  0.74268741  0.36441570  0.89157346    -0.13300
C1335       C  0.77847332  0.40486605  0.59078277     0.24700
C1336       C  0.80596798  0.40082407  0.61202748    -0.23400
C1337       C  0.79961759  0.40424836  0.64410345     0.19600
C1338       C  0.76693216  0.41279115  0.65482600     0.24600
C1339       C  0.73951790  0.41838854  0.63369641    -0.23300
C1340       C  0.74547510  0.41387290  0.60153401     0.19600
F1341       F  0.71946848  0.41802353  0.58055525    -0.13300
F1342       F  0.78372439  0.40121148  0.55964783    -0.15700
F1343       F  0.76259853  0.41644561  0.68610554    -0.15700
F1344       F  0.82519495  0.39919104  0.66537195    -0.13300
C1345       C  0.69703030  0.51387375  0.76130523     0.24700
C1346       C  0.70743559  0.50463720  0.73101548    -0.23400
C1347       C  0.74294026  0.50349397  0.72421580     0.19600
C1348       C  0.76731695  0.50624996  0.74833946     0.24600
C1349       C  0.75657140  0.51082765  0.77940501    -0.23300
C1350       C  0.72148795  0.51725357  0.78528736     0.19600
F1351       F  0.71041331  0.52187340  0.81501616    -0.13300
F1352       F  0.66293407  0.51601851  0.76833259    -0.15700
F1353       F  0.80100543  0.49949165  0.74207413    -0.15700
F1354       F  0.75387238  0.49452320  0.69524904    -0.13300
C1355       C  0.56757840  0.27931078  0.65903457     0.24700
C1356       C  0.58751242  0.26339302  0.63576609    -0.23400
C1357       C  0.61878094  0.27921548  0.62655269     0.19600
C1358       C  0.62926005  0.31096237  0.63960520     0.24600
C1359       C  0.60829983  0.32780529  0.66161799    -0.23300
C1360       C  0.57771710  0.31121606  0.67166461     0.19600
F1361       F  0.55699273  0.32633625  0.69323700    -0.13300
F1362       F  0.53716089  0.26501604  0.66834372    -0.15700
F1363       F  0.65887218  0.32614163  0.62936845    -0.15700
F1364       F  0.63905723  0.26412945  0.60463452    -0.13300
C1365       C  0.60543056  0.39526632  0.56169159     0.24700
C1366       C  0.59751394  0.42954710  0.57010304    -0.23400
C1367       C  0.58167327  0.45193536  0.54843176     0.19600
C1368       C  0.57285024  0.43970135  0.51873434     0.24600
C1369       C  0.58002078  0.40493320  0.51044367    -0.23300
C1370       C  0.59704973  0.38309127  0.53214501     0.19600
F1371       F  0.60615923  0.34997071  0.52476248    -0.13300
F1372       F  0.62155040  0.37352882  0.58220327    -0.15700
F1373       F  0.56653389  0.46574297  0.99554232    -0.15700
F1374       F  0.57331274  0.48501520  0.55654430    -0.13300
C1375       C  0.55255317  0.43877536  0.77821108     0.24700
C1376       C  0.56987288  0.41457976  0.75963548    -0.23400
C1377       C  0.57124932  0.37935697  0.76903457     0.19600
C1378       C  0.55704323  0.36868944  0.79725495     0.24600
C1379       C  0.54128974  0.39305826  0.81685839    -0.23300
C1380       C  0.53843383  0.42816083  0.80678358     0.19600
F1381       F  0.52321518  0.45251457  0.82505678    -0.13300
F1382       F  0.55130568  0.47292583  0.76973890    -0.15700
F1383       F  0.56097381  0.33489988  0.80624543    -0.15700
F1384       F  0.58741461  0.35518177  0.75123327    -0.13300
C1385       C  0.01178094  0.06431256  0.88158296     0.24700
C1386       C  0.02302200  0.09729064  0.89164431    -0.23400
C1387       C  0.05659028  0.10827706  0.88384482     0.19600
C1388       C  0.07905042  0.08601794  0.86783263     0.24600
C1389       C  0.06803324  0.05271357  0.85830457    -0.23300
C1390       C  0.03390134  0.04240396  0.86490225     0.19600
F1391       F  0.02238605  0.01030612  0.85666511    -0.13300
F1392       F  0.97883226  0.05372022  0.88689578    -0.15700
F1393       F  0.11183979  0.09680544  0.86204529    -0.15700
F1394       F  0.06774876  0.14051474  0.89201956    -0.13300
C1395       C  0.44500210  0.04388652  0.66116508     0.24700
C1396       C  0.41112670  0.04468330  0.64933134    -0.23400
C1397       C  0.40320915  0.06957518  0.62570573     0.19600
C1398       C  0.42892210  0.09155140  0.61326624     0.24600
C1399       C  0.46307594  0.08888234  0.62384219    -0.23300
C1400       C  0.47055259  0.06544595  0.64848660     0.19600
F1401       F  0.50302432  0.06307186  0.66033371    -0.13300
F1402       F  0.45407617  0.02107257  0.68411803    -0.15700
F1403       F  0.42080587  0.11396319  0.58972111    -0.15700
F1404       F  0.37093468  0.07167163  0.61344575    -0.13300
C1405       C  0.22480007  0.99450963  0.72165942     0.24700
C1406       C  0.26065084  0.99858542  0.72545190    -0.23400
C1407       C  0.27354836  0.00775736  0.75497155     0.19600
C1408       C  0.25126358  0.00962306  0.78081268     0.24600
C1409       C  0.21581753  0.00244810  0.77743762    -0.23300
C1410       C  0.20258882  0.99653225  0.74739371     0.19600
F1411       F  0.16869212  0.98851810  0.74358638    -0.13300
F1412       F  0.21175491  0.98466363  0.69362158    -0.15700
F1413       F  0.26484190  0.01469744  0.80963588    -0.15700
F1414       F  0.30812256  0.01065916  0.75952917    -0.13300
C1415       C  0.95815539  0.57915221  0.86026257     0.24700
C1416       C  0.95204098  0.60025117  0.88654346    -0.23400
C1417       C  0.91886182  0.60051944  0.89957596     0.19600
C1418       C  0.89303165  0.57822907  0.88787813     0.24600
C1419       C  0.89983694  0.55551969  0.86256042    -0.23300
C1420       C  0.93252017  0.55727459  0.84839647     0.19600
F1421       F  0.94045114  0.53665859  0.82378672    -0.13300
F1422       F  0.98951882  0.57924150  0.84611734    -0.15700
F1423       F  0.86195455  0.57770805  0.90249759    -0.15700
F1424       F  0.91202726  0.62067846  0.92474054    -0.13300
C1425       C  0.11150731  0.78763886  0.88945415     0.24700
C1426       C  0.07761697  0.77626393  0.88334724    -0.23400
C1427       C  0.05400500  0.79950630  0.86953282     0.19600
C1428       C  0.06407205  0.83371890  0.86225639     0.24600
C1429       C  0.09807202  0.84481380  0.86800023    -0.23300
C1430       C  0.12180201  0.82145619  0.88133916     0.19600
F1431       F  0.15470264  0.83175296  0.88727283    -0.13300
F1432       F  0.13465688  0.76592803  0.90333641    -0.15700
F1433       F  0.04080625  0.85590216  0.84918996    -0.15700
F1434       F  0.02085096  0.78955976  0.86437661    -0.13300
C1435       C  0.97506844  0.96807255  0.64558821     0.24700
C1436       C  0.96608944  0.94067057  0.62514658    -0.23400
C1437       C  0.93094565  0.93329808  0.62046481     0.19600
C1438       C  0.90550379  0.95432360  0.63413345     0.24600
C1439       C  0.91471138  0.98302667  0.65300387    -0.23300
C1440       C  0.94983890  0.98875810  0.65932760     0.19600
F1441       F  0.96022989  0.01564992  0.67755571    -0.13300
F1442       F  0.00856295  0.97524190  0.65251891    -0.15700
F1443       F  0.87184554  0.94716915  0.62801900    -0.15700
F1444       F  0.92114180  0.90649339  0.60192087    -0.13300
C1445       C  0.22197513  0.92970093  0.60089771     0.24700
C1446       C  0.23969874  0.90761861  0.62166551    -0.23400
C1447       C  0.22567991  0.87462670  0.62899881     0.19600
C1448       C  0.19322525  0.86506262  0.61740929     0.24600
C1449       C  0.17461764  0.88835767  0.59838035    -0.23300
C1450       C  0.18989704  0.92020515  0.58940020     0.19600
F1451       F  0.17308160  0.94317243  0.57049669    -0.13300
F1452       F  0.23502660  0.96129863  0.59251913    -0.15700
F1453       F  0.17898405  0.83436998  0.62674308    -0.15700
F1454       F  0.24214106  0.85267576  0.64905606    -0.13300
C1455       C  0.99656067  0.76201721  0.53585592     0.24700
C1456       C  0.99952952  0.79708936  0.52634771    -0.23400
C1457       C  0.99704765  0.80505722  0.49425810     0.19600
C1458       C  0.99512622  0.77809830  0.97200852     0.24600
C1459       C  0.99738149  0.74300211  0.98155215    -0.23300
C1460       C  0.99534214  0.73510449  0.01366765     0.19600
F1461       F  0.99674149  0.70145328  0.02364024    -0.13300
F1462       F  0.99823320  0.75327582  0.56659240    -0.15700
F1463       F  0.99704378  0.78677760  0.94126532    -0.15700
F1464       F  0.99886988  0.83869813  0.48430204    -0.13300
C1465       C  0.11698634  0.90276851  0.73263623     0.24700
C1466       C  0.09354921  0.91710425  0.75423455    -0.23400
C1467       C  0.05843252  0.91987022  0.74584627     0.19600
C1468       C  0.04748560  0.91016549  0.71590960     0.24600
C1469       C  0.07151665  0.89771076  0.69413504    -0.23300
C1470       C  0.10604986  0.89332302  0.70300865     0.19600
F1471       F  0.12946457  0.88004620  0.68270406    -0.13300
F1472       F  0.15074870  0.89771919  0.73999083    -0.15700
F1473       F  0.01392203  0.91471313  0.70768038    -0.15700
F1474       F  0.03494254  0.93298482  0.76610850    -0.13300
C1475       C  0.12503847  0.93535557  0.49526308     0.24700
C1476       C  0.09087636  0.93900568  0.50612943    -0.23400
C1477       C  0.06291306  0.95926994  0.98644368     0.19600
C1478       C  0.07328693  0.97284139  0.95750120     0.24600
C1479       C  0.10762953  0.96847021  0.94709473    -0.23300
C1480       C  0.13202241  0.95355656  0.96737886     0.19600
F1481       F  0.16541856  0.94931425  0.95854716    -0.13300
F1482       F  0.14877011  0.91708846  0.51205310    -0.15700
F1483       F  0.04934408  0.98852295  0.93897555    -0.15700
F1484       F  0.02927293  0.96137623  0.99506303    -0.13300
C1485       C  0.06776054  0.44798929  0.64113808     0.24700
C1486       C  0.05864617  0.48281646  0.64695109    -0.23400
C1487       C  0.02634361  0.49505072  0.63660578     0.19600
C1488       C  0.00351267  0.47298725  0.62103333     0.24600
C1489       C  0.01207716  0.43786709  0.61594603    -0.23300
C1490       C  0.04439605  0.42550300  0.62633561     0.19600
F1491       F  0.05333855  0.39164287  0.62214675    -0.13300
F1492       F  0.09920500  0.43573854  0.64991622    -0.15700
F1493       F  0.97231588  0.48577503  0.61212334    -0.15700
F1494       F  0.01736621  0.52898375  0.64031787    -0.13300
C1495       C  0.07882166  0.58351917  0.77989006     0.24700
C1496       C  0.07498559  0.60693537  0.75497268    -0.23400
C1497       C  0.05892742  0.63927909  0.75988356     0.19600
C1498       C  0.04896705  0.64905210  0.79002101     0.24600
C1499       C  0.05502510  0.62646613  0.81541452    -0.23300
C1500       C  0.06869045  0.59302120  0.80981796     0.19600
F1501       F  0.07285026  0.56963623  0.83349003    -0.13300
F1502       F  0.09298505  0.55162450  0.77528392    -0.15700
F1503       F  0.03562653  0.68131410  0.79461207    -0.15700
F1504       F  0.05522875  0.66233090  0.73591619    -0.13300
C1505       C  0.05935524  0.57929991  0.52136208     0.24700
C1506       C  0.08311132  0.59867911  0.50374141    -0.23400
C1507       C  0.11779711  0.60035665  0.51371746     0.19600
C1508       C  0.12779941  0.58589043  0.54226857     0.24600
C1509       C  0.10320684  0.56981265  0.56162445    -0.23300
C1510       C  0.06928062  0.56502149  0.55017900     0.19600
F1511       F  0.04525460  0.54783075  0.56749206    -0.13300
F1512       F  0.02607165  0.57624423  0.51180158    -0.15700
F1513       F  0.16097712  0.59000843  0.55186791    -0.15700
F1514       F  0.13971934  0.61777802  0.99516695    -0.13300
C1515       C  0.08594351  0.69581432  0.61235646     0.24700
C1516       C  0.09448873  0.68929127  0.64379643    -0.23400
C1517       C  0.09465370  0.71733299  0.66490753     0.19600
C1518       C  0.08604885  0.75107018  0.65476936     0.24600
C1519       C  0.07777784  0.75748484  0.62324268    -0.23300
C1520       C  0.07801398  0.72947852  0.60217295     0.19600
F1521       F  0.06997083  0.73446076  0.57159727    -0.13300
F1522       F  0.08578961  0.66965367  0.59114332    -0.15700
F1523       F  0.08652328  0.77753880  0.67565760    -0.15700
F1524       F  0.10250577  0.71206548  0.69548508    -0.13300
C1525       C  0.41534625  0.41856161  0.89171943     0.24700
C1526       C  0.44775294  0.43030007  0.90240641    -0.23400
C1527       C  0.45661072  0.46552444  0.89769555     0.19600
C1528       C  0.43441797  0.48796578  0.88133928     0.24600
C1529       C  0.40236322  0.47605929  0.87000605    -0.23300
C1530       C  0.39264099  0.44136946  0.87621040     0.19600
F1531       F  0.36133186  0.42941607  0.86683235    -0.13300
F1532       F  0.40584930  0.38478281  0.89597690    -0.15700
F1533       F  0.44387116  0.52182656  0.87751962    -0.15700
F1534       F  0.48759014  0.47794758  0.90751724    -0.13300
C1535       C  0.17832197  0.60437041  0.91893626     0.24700
C1536       C  0.16517962  0.63686135  0.90903218    -0.23400
C1537       C  0.18550928  0.65817549  0.88959116     0.19600
C1538       C  0.21741505  0.64615532  0.87868160     0.24600
C1539       C  0.22946268  0.61264292  0.88703236    -0.23300
C1540       C  0.21000522  0.59239729  0.90809889     0.19600
F1541       F  0.22120028  0.56056852  0.91775552    -0.13300
F1542       F  0.15999435  0.58342303  0.93856512    -0.15700
F1543       F  0.23543742  0.66660131  0.85844831    -0.15700
F1544       F  0.17352399  0.68949624  0.87943761    -0.13300
C1545       C  0.26486630  0.51792434  0.75327472     0.24700
C1546       C  0.25197573  0.51974299  0.78384776    -0.23400
C1547       C  0.21598735  0.51986408  0.78822985     0.19600
C1548       C  0.19355281  0.52169701  0.76246548     0.24600
C1549       C  0.20676429  0.52404645  0.73198179    -0.23300
C1550       C  0.24254236  0.52064881  0.72752732     0.19600
F1551       F  0.25615554  0.52386979  0.69844517    -0.13300
F1552       F  0.29939827  0.51788085  0.74841744    -0.15700
F1553       F  0.15917427  0.52529106  0.76743703    -0.15700
F1554       F  0.20274188  0.52234793  0.81746728    -0.13300
C1555       C  0.54535537  0.58985070  0.61386146     0.24700
C1556       C  0.51111584  0.58766784  0.62468698    -0.23400
C1557       C  0.50371013  0.56488275  0.64981920     0.19600
C1558       C  0.52888157  0.54263181  0.66185375     0.24600
C1559       C  0.56229952  0.54249052  0.64933007    -0.23300
C1560       C  0.57080031  0.56717898  0.62599615     0.19600
F1561       F  0.60284941  0.56741156  0.61322121    -0.13300
F1562       F  0.55365872  0.61221122  0.59035300    -0.15700
F1563       F  0.52008464  0.51985351  0.68495252    -0.15700
F1564       F  0.47164333  0.56362447  0.66260599    -0.13300
C1565       C  0.39640761  0.55596813  0.96184439     0.24700
C1566       C  0.36211920  0.56157191  0.95150089    -0.23400
C1567       C  0.33823132  0.57630367  0.97210528     0.19600
C1568       C  0.34623500  0.59156827  0.49837001     0.24600
C1569       C  0.38067865  0.58681286  0.50838254    -0.23300
C1570       C  0.40747092  0.56894667  0.99065597     0.19600
F1571       F  0.44109354  0.56559083  0.99913892    -0.13300
F1572       F  0.41969750  0.53955126  0.94340612    -0.15700
F1573       F  0.32361732  0.61060070  0.51545399    -0.15700
F1574       F  0.30472415  0.58082193  0.96365923    -0.13300
C1575       C  0.41843443  0.63634284  0.72065497     0.24700
C1576       C  0.40716192  0.61682018  0.69488373    -0.23400
C1577       C  0.38724584  0.58651213  0.70028035     0.19600
C1578       C  0.37665869  0.57755351  0.73027546     0.24600
C1579       C  0.38592476  0.59817778  0.75571125    -0.23300
C1580       C  0.40784581  0.62704079  0.75095133     0.19600
F1581       F  0.41714068  0.64746290  0.77532846    -0.13300
F1582       F  0.43804670  0.66533557  0.71645609    -0.15700
F1583       F  0.35705548  0.54863472  0.73445243    -0.15700
F1584       F  0.37747832  0.56551709  0.67641575    -0.13300
C1585       C  0.24653947  0.64793953  0.62876031     0.24700
C1586       C  0.23373522  0.61388444  0.62428732    -0.23400
C1587       C  0.25257873  0.59082073  0.60547391     0.19600
C1588       C  0.28474565  0.60031197  0.59383337     0.24600
C1589       C  0.29906701  0.63317627  0.60066236    -0.23300
C1590       C  0.27904031  0.65748211  0.61705699     0.19600
F1591       F  0.29169494  0.68967167  0.62343025    -0.13300
F1592       F  0.22858695  0.67142715  0.64583791    -0.15700
F1593       F  0.30232366  0.57664216  0.57656948    -0.15700
F1594       F  0.24038491  0.55846869  0.59889263    -0.13300
C1595       C  0.37802973  0.80609415  0.66650939     0.24700
C1596       C  0.37772048  0.83437384  0.64538476    -0.23400
C1597       C  0.38447363  0.82830331  0.61366064     0.21200
C1598       C  0.39193136  0.79477986  0.60327834     0.24600
C1599       C  0.39319895  0.76655084  0.62447269    -0.23300
C1600       C  0.38603480  0.77250613  0.65618794     0.19600
F1601       F  0.38623105  0.74576717  0.67712763    -0.13300
F1602       F  0.37128577  0.81104917  0.69726706    -0.15700
F1603       F  0.39861365  0.79018300  0.57245235    -0.15700
F1604       F  0.38310260  0.85474684  0.59244768    -0.13300
C1605       C  0.54078644  0.94766801  0.91292801     0.24700
C1606       C  0.52269998  0.92622141  0.89230350    -0.23400
C1607       C  0.53131256  0.92717374  0.86021664     0.19600
C1608       C  0.55583948  0.95080625  0.84872603     0.24600
C1609       C  0.57396036  0.97219039  0.86933435    -0.23300
C1610       C  0.56695202  0.96962197  0.90169500     0.19600
F1611       F  0.58482072  0.98910793  0.92251202    -0.13300
F1612       F  0.53361441  0.94688246  0.94394871    -0.15700
F1613       F  0.56232407  0.95232904  0.81760509    -0.15700
F1614       F  0.51540915  0.90563566  0.83974690    -0.13300
C1615       C  0.40430998  0.69078801  0.86973886     0.24700
C1616       C  0.36975391  0.68311566  0.86348188    -0.23400
C1617       C  0.34477176  0.70959979  0.86566175     0.19600
C1618       C  0.35418563  0.74300407  0.87587555     0.24600
C1619       C  0.38887561  0.75040688  0.88318399    -0.23300
C1620       C  0.41390438  0.72402763  0.87895059     0.19600
F1621       F  0.44799753  0.72994482  0.88402069    -0.13300
F1622       F  0.42909543  0.66606044  0.86641269    -0.15700
F1623       F  0.32954673  0.76796340  0.87837088    -0.15700
F1624       F  0.31119434  0.70280805  0.85887931    -0.13300
C1625       C  0.47758246  0.78789611  0.50762933     0.24700
C1626       C  0.47882610  0.78043566  0.97922918    -0.23400
C1627       C  0.47896554  0.74478120  0.97197178     0.19600
C1628       C  0.47376580  0.71693720  0.49367756     0.24600
C1629       C  0.47247498  0.72740584  0.52516517    -0.23300
C1630       C  0.47681069  0.76303585  0.53192362     0.19600
F1631       F  0.47538173  0.77426754  0.56188081    -0.13300
F1632       F  0.48038457  0.82440587  0.01853486    -0.15700
F1633       F  0.47007525  0.68278047  0.48620821    -0.15700
F1634       F  0.47614021  0.73453937  0.94183386    -0.13300
C1635       C  0.30867681  0.93397543  0.88589496     0.24700
C1636       C  0.31377683  0.90157434  0.90069294    -0.23400
C1637       C  0.28477892  0.88112883  0.90867211     0.19600
C1638       C  0.25145736  0.89245411  0.90089566     0.24600
C1639       C  0.24662292  0.92469016  0.88567667    -0.23300
C1640       C  0.27556278  0.94551783  0.87880092     0.19600
F1641       F  0.27207701  0.97669357  0.86398808    -0.13300
F1642       F  0.33578773  0.95485675  0.87834055    -0.15700
F1643       F  0.22399805  0.87196171  0.90825984    -0.15700
F1644       F  0.28865530  0.84979678  0.92319585    -0.13300
C1645       C  0.38940239  0.87063828  0.80152780     0.24700
C1646       C  0.41976554  0.88579132  0.81314494    -0.23400
C1647       C  0.43548550  0.91317463  0.79630403     0.19600
C1648       C  0.42159077  0.92465855  0.76799086     0.24600
C1649       C  0.39079247  0.91021268  0.75687497    -0.23300
C1650       C  0.37475088  0.88307733  0.77376386     0.19600
F1651       F  0.34501761  0.86845118  0.76323717    -0.13300
F1652       F  0.37273799  0.84542184  0.81807888    -0.15700
F1653       F  0.43738576  0.95093310  0.75209199    -0.15700
F1654       F  0.46374908  0.92961462  0.80768224    -0.13300
C1655       C  0.36345522  0.93357136  0.50892594     0.24700
C1656       C  0.39555408  0.91692539  0.50544599    -0.23400
C1657       C  0.41759008  0.91377134  0.53114130     0.19600
C1658       C  0.40801528  0.92737315  0.55998706     0.24600
C1659       C  0.37550448  0.94355866  0.56398904    -0.23300
C1660       C  0.35330871  0.94649323  0.53806021     0.19600
F1661       F  0.32171579  0.96141969  0.54091227    -0.13300
F1662       F  0.34096118  0.93640472  0.98402844    -0.15700
F1663       F  0.43016759  0.92318492  0.58432252    -0.15700
F1664       F  0.44832657  0.89709919  0.52835879    -0.13300
loop_ 
_geom_bond_atom_site_label_1 
_geom_bond_atom_site_label_2 
_geom_bond_distance 
_geom_bond_site_symmetry_2 
_ccdc_geom_bond_type 
O1          Cr19   2.009       .  S
O1            C9   1.264       .  A
O2          Cr19   1.992       .  S
O2            C3   1.266       .  A
C3            O4   1.262       .  A
C3          C774   1.485       .  S
O4          Cr20   2.000       .  S
O5          Cr20   2.007       .  S
O5            C6   1.272       .  A
C6            O7   1.267       .  A
C6          C794   1.477       .  S
O7          Cr21   1.995       .  S
O8          Cr21   1.970       .  S
O8            C9   1.258       .  A
C9         C1656   1.468       .  S
O10         Cr19   1.965       .  S
O10          C18   1.257       .  A
O11         Cr19   1.995       .  S
O11          C12   1.261       .  A
C12          O13   1.265       .  A
C12         C814   1.465       .  S
O13         Cr20   1.993       .  S
O14         Cr20   1.981       .  S
O14          C15   1.258       .  A
C15          O16   1.258       .  A
C15         C787   1.465       .  S
O16         Cr21   1.984       .  S
O17         Cr21   2.001       .  S
O17          C18   1.263       .  A
C18         C804   1.477       .  S
Cr19         O22   1.777       .  S
Cr20         O22   1.773       .  S
Cr21         O22   1.773       .  S
O23         Cr41   1.987       .  S
O23          C31   1.263       .  A
O24         Cr41   1.992       .  S
O24          C25   1.263       .  A
C25          O26   1.263       .  A
C25         C724   1.485       .  S
O26         Cr42   1.995       .  S
O27         Cr42   2.048       .  S
O27          C28   1.277       .  A
C28          O29   1.262       .  A
C28         C797   1.490       .  S
O29         Cr43   1.967       .  S
O30         Cr43   1.990       .  S
O30          C31   1.263       .  A
C31         C737   1.471       .  S
O32         Cr41   1.995       .  S
O32          C40   1.264       .  A
O33         Cr41   1.948       .  S
O33          C34   1.256       .  A
C34          O35   1.271       .  A
C34         C744   1.476       .  S
O35         Cr42   2.027       .  S
O36         Cr42   1.984       .  S
O36          C37   1.257       .  A
C37          O38   1.259       .  A
C37         C767   1.474       .  S
O38         Cr43   1.994       .  S
O39         Cr43   1.997       .  S
O39          C40   1.265       .  A
C40         C757   1.485       .  S
Cr41         O44   1.765       .  S
Cr42         O44   1.780       .  S
Cr43         O44   1.767       .  S
O45         Cr63   1.962       .  S
O45          C53   1.261       .  A
O46         Cr63   1.985       .  S
O46          C47   1.259       .  A
C47          O48   1.266       .  A
C47         C714   1.476       .  S
O48         Cr64   2.012       .  S
O49         Cr64   2.018       .  S
O49          C50   1.269       .  A
C50          O51   1.264       .  A
C50         C697   1.486       .  S
O51         Cr65   1.974       .  S
O52         Cr65   2.018       .  S
O52          C53   1.267       .  A
C53         C747   1.467       .  S
O54         Cr63   1.994       .  S
O54          C62   1.257       .  A
O55         Cr63   1.972       .  S
O55          C56   1.262       .  A
C56          O57   1.271       .  A
C56         C707   1.485       .  S
O57         Cr64   2.019       .  S
O58         Cr64   1.986       .  S
O58          C59   1.264       .  A
C59          O60   1.259       .  A
C59         C734   1.470       .  S
O60         Cr65   1.982       .  S
O61         Cr65   1.984       .  S
O61          C62   1.257       .  A
C62         C784   1.462       .  S
Cr63         O66   1.768       .  S
Cr64         O66   1.771       .  S
Cr65         O66   1.771       .  S
O67         Cr85   1.965       .  S
O67          C75   1.259       .  A
O68         Cr85   2.004       .  S
O68          C69   1.266       .  A
C69          O70   1.266       .  A
C69         C717   1.478       .  S
O70         Cr86   2.001       .  S
O71         Cr86   2.001       .  S
O71          C72   1.264       .  A
C72          O73   1.263       .  A
C72         C654   1.479       .  S
O73         Cr87   1.974       .  S
O74         Cr87   2.005       .  S
O74          C75   1.264       .  A
C75         C664   1.458       .  S
O76         Cr85   2.006       .  S
O76          C84   1.262       .  A
O77         Cr85   1.985       .  S
O77          C78   1.260       .  A
C78          O79   1.266       .  A
C78         C754   1.487       .  S
O79         Cr86   2.000       .  S
O80         Cr86   1.988       .  S
O80          C81   1.266       .  A
C81          O82   1.259       .  A
C81         C677   1.472       .  S
O82         Cr87   1.983       .  S
O83         Cr87   1.966       .  S
O83          C84   1.256       .  A
C84         C684   1.472       .  S
Cr85         O88   1.770       .  S
Cr86         O88   1.769       .  S
Cr87         O88   1.772       .  S
O89        Cr107   1.986       .  S
O89          C97   1.262       .  A
O90        Cr107   1.986       .  S
O90          C91   1.263   1_455  A
C91          O92   1.264       .  A
C91         C604   1.486       .  S
O92        Cr108   1.989   1_655  S
O93        Cr108   2.040       .  S
O93          C94   1.275       .  A
C94          O95   1.261       .  A
C94         C624   1.485   1_455  S
O95        Cr109   1.966       .  S
O96        Cr109   1.985       .  S
O96          C97   1.262       .  A
C97         C644   1.467       .  S
O98        Cr107   1.997       .  S
O98         C106   1.264       .  A
O99        Cr107   1.952       .  S
O99         C100   1.258       .  A
C100        O101   1.267       .  A
C100        C637   1.467       .  S
O101       Cr108   2.021       .  S
O102       Cr108   1.983       .  S
O102        C103   1.258       .  A
C103        O104   1.258       .  A
C103        C687   1.477       .  S
O104       Cr109   1.986       .  S
O105       Cr109   1.986       .  S
O105        C106   1.261       .  A
C106        C617   1.475       .  S
Cr107       O110   1.764       .  S
Cr108       O110   1.778       .  S
Cr109       O110   1.764       .  S
O111       Cr129   1.987       .  S
O111        C119   1.263       .  A
O112       Cr129   1.974       .  S
O112        C113   1.257   1_455  A
C113        O114   1.267       .  A
C113        C584   1.498       .  S
O114       Cr130   2.012   1_655  S
O115       Cr130   2.034       .  S
O115        C116   1.275       .  A
C116        O117   1.264       .  A
C116        C627   1.486   1_455  S
O117       Cr131   1.972       .  S
O118       Cr131   1.993       .  S
O118        C119   1.263       .  A
C119       C1506   1.475       .  S
O120       Cr129   1.990       .  S
O120        C128   1.261       .  A
O121       Cr129   1.953       .  S
O121        C122   1.260       .  A
C122        O123   1.269       .  A
C122        C667   1.467       .  S
O123       Cr130   2.014       .  S
O124       Cr130   1.990       .  S
O124        C125   1.259       .  A
C125        O126   1.256       .  A
C125        C594   1.474       .  S
O126       Cr131   1.982       .  S
O127       Cr131   2.002       .  S
O127        C128   1.262       .  A
C128        C704   1.482       .  S
Cr129       O132   1.773       .  S
Cr130       O132   1.791       .  S
Cr131       O132   1.773       .  S
O133       Cr151   1.961       .  S
O133        C141   1.258       .  A
O134       Cr151   2.008       .  S
O134        C135   1.269       .  A
C135        O136   1.270       .  A
C135        C574   1.483       .  S
O136       Cr152   2.009       .  S
O137       Cr152   2.001   1_545  S
O137        C138   1.262       .  A
C138        O139   1.263   1_545  A
C138        C564   1.492       .  S
O139       Cr153   1.982       .  S
O140       Cr153   2.001       .  S
O140        C141   1.266       .  A
C141        C817   1.471       .  S
O142       Cr151   2.002       .  S
O142        C150   1.262       .  A
O143       Cr151   1.980       .  S
O143        C144   1.257       .  A
C144        O145   1.262       .  A
C144        C614   1.476       .  S
O145       Cr152   1.990       .  S
O146       Cr152   1.996       .  S
O146        C147   1.268       .  A
C147        O148   1.263       .  A
C147        C827   1.485       .  S
O148       Cr153   1.994       .  S
O149       Cr153   1.972       .  S
O149        C150   1.258       .  A
C150        C764   1.480       .  S
Cr151       O154   1.772       .  S
Cr152       O154   1.770       .  S
Cr153       O154   1.768       .  S
O155       Cr173   1.944       .  S
O155        C163   1.256       .  A
O156       Cr173   2.002       .  S
O156        C157   1.265       .  A
C157        O158   1.271   1_565  A
C157        C577   1.481   1_565  S
O158       Cr174   2.015   1_545  S
O159       Cr174   1.996   1_545  S
O159        C160   1.258       .  A
C160        O161   1.259   1_545  A
C160        C557   1.485       .  S
O161       Cr175   1.978       .  S
O162       Cr175   2.021       .  S
O162        C163   1.270       .  A
C163        C634   1.482       .  S
O164       Cr173   1.992       .  S
O164        C172   1.258       .  A
O165       Cr173   1.974       .  S
O165        C166   1.256       .  A
C166        O167   1.263       .  A
C166        C807   1.472       .  S
O167       Cr174   2.002       .  S
O168       Cr174   1.982       .  S
O168        C169   1.269       .  A
C169        O170   1.270       .  A
C169        C647   1.477       .  S
O170       Cr175   2.007       .  S
O171       Cr175   1.977       .  S
O171        C172   1.256       .  A
C172        C597   1.471       .  S
Cr173       O176   1.767       .  S
Cr174       O176   1.779       .  S
Cr175       O176   1.782       .  S
O177       Cr195   1.981       .  S
O177        C185   1.259       .  A
O178       Cr195   1.983       .  S
O178        C179   1.261       .  A
C179        O180   1.261       .  A
C179        C727   1.479       .  S
O180       Cr196   1.992       .  S
O181       Cr196   2.039       .  S
O181        C182   1.277       .  A
C182        O183   1.265       .  A
C182        C514   1.485       .  S
O183       Cr197   1.969       .  S
O184       Cr197   1.981       .  S
O184        C185   1.259       .  A
C185        C544   1.462       .  S
O186       Cr195   2.001       .  S
O186        C194   1.265       .  A
O187       Cr195   1.940       .  S
O187        C188   1.255       .  A
C188        O189   1.269       .  A
C188        C534   1.463       .  S
O189       Cr196   2.018       .  S
O190       Cr196   1.995       .  S
O190        C191   1.258       .  A
C191        O192   1.255       .  A
C191        C507   1.486       .  S
O192       Cr197   1.981       .  S
O193       Cr197   2.000       .  S
O193        C194   1.267       .  A
C194        C527   1.482       .  S
Cr195       O198   1.768       .  S
Cr196       O198   1.783       .  S
Cr197       O198   1.767       .  S
O199       Cr217   1.996       .  S
O199        C207   1.262       .  A
O200       Cr217   1.987       .  S
O200        C201   1.263       .  A
C201        O202   1.263       .  A
C201        C587   1.500       .  S
O202       Cr218   2.014       .  S
O203       Cr218   2.004       .  S
O203        C204   1.271       .  A
C204        O205   1.268       .  A
C204        C517   1.473       .  S
O205       Cr219   1.995       .  S
O206       Cr219   1.979       .  S
O206        C207   1.261       .  A
C207        C464   1.477       .  S
O208       Cr217   1.973       .  S
O208        C216   1.260       .  A
O209       Cr217   1.991       .  S
O209        C210   1.263       .  A
C210        O211   1.269       .  A
C210        C477   1.487       .  S
O211       Cr218   2.003       .  S
O212       Cr218   1.998       .  S
O212        C213   1.259       .  A
C213        O214   1.256       .  A
C213        C494   1.491       .  S
O214       Cr219   1.986       .  S
O215       Cr219   1.986       .  S
O215        C216   1.260       .  A
C216        C484   1.469       .  S
Cr217       O220   1.777       .  S
Cr218       O220   1.786       .  S
Cr219       O220   1.781       .  S
O221       Cr239   1.968       .  S
O221        C229   1.260       .  A
O222       Cr239   2.011       .  S
O222        C223   1.270       .  A
C223        O224   1.271       .  A
C223        C454   1.485       .  S
O224       Cr240   2.009       .  S
O225       Cr240   1.994       .  S
O225        C226   1.263       .  A
C226        O227   1.265       .  A
C226        C657   1.480   1_655  S
O227       Cr241   1.983       .  S
O228       Cr241   2.016       .  S
O228        C229   1.266       .  A
C229        C474   1.475       .  S
O230       Cr239   2.015       .  S
O230        C238   1.265       .  A
O231       Cr239   1.987       .  S
O231        C232   1.259       .  A
C232        O233   1.257       .  A
C232        C444   1.475       .  S
O233       Cr240   1.981       .  S
O234       Cr240   2.009       .  S
O234        C235   1.268       .  A
C235        O236   1.260       .  A
C235        C467   1.478       .  S
O236       Cr241   1.991       .  S
O237       Cr241   1.967       .  S
O237        C238   1.256       .  A
C238        C504   1.476       .  S
Cr239       O242   1.769       .  S
Cr240       O242   1.774       .  S
Cr241       O242   1.776       .  S
O243       Cr261   1.974       .  S
O243        C251   1.262       .  A
O244       Cr261   1.998       .  S
O244        C245   1.268       .  A
C245        O246   1.274       .  A
C245        C457   1.481       .  S
O246       Cr262   2.014       .  S
O247       Cr262   1.995       .  S
O247        C248   1.258       .  A
C248        O249   1.260       .  A
C248        C554   1.481   1_655  S
O249       Cr263   1.981       .  S
O250       Cr263   2.004       .  S
O250        C251   1.266       .  A
C251       C1246   1.475       .  S
O252       Cr261   1.986       .  S
O252        C260   1.258       .  A
O253       Cr261   1.990       .  S
O253        C254   1.257       .  A
C254        O255   1.256       .  A
C254        C487   1.483       .  S
O255       Cr262   1.984       .  S
O256       Cr262   2.003       .  S
O256        C257   1.270       .  A
C257        O258   1.265       .  A
C257        C424   1.476       .  S
O258       Cr263   2.003       .  S
O259       Cr263   1.967       .  S
O259        C260   1.257       .  A
C260        C437   1.472       .  S
Cr261       O264   1.781       .  S
Cr262       O264   1.780       .  S
Cr263       O264   1.782       .  S
O265       Cr283   2.009       .  S
O265        C273   1.266       .  A
O266       Cr283   1.996       .  S
O266        C267   1.263   1_545  A
C267        O268   1.257       .  A
C267        C777   1.482       .  S
O268       Cr284   1.990   1_565  S
O269       Cr284   2.011       .  S
O269        C270   1.271       .  A
C270        O271   1.267       .  A
C270        C384   1.479       .  S
O271       Cr285   2.002       .  S
O272       Cr285   1.948       .  S
O272        C273   1.256       .  A
C273        C404   1.479       .  S
O274       Cr283   1.976       .  S
O274        C282   1.258       .  A
O275       Cr283   1.989       .  S
O275        C276   1.265       .  A
C276        O277   1.269       .  A
C276        C394   1.475       .  S
O277       Cr284   1.984       .  S
O278       Cr284   1.991       .  S
O278        C279   1.260       .  A
C279        O280   1.257       .  A
C279        C434   1.480       .  S
O280       Cr285   1.982       .  S
O281       Cr285   1.997       .  S
O281        C282   1.261       .  A
C282        C377   1.484       .  S
Cr283       O286   1.779       .  S
Cr284       O286   1.772       .  S
Cr285       O286   1.769       .  S
O287       Cr305   2.019       .  S
O287        C295   1.268       .  A
O288       Cr305   1.975       .  S
O288        C289   1.260       .  A
C289        O290   1.263       .  A
C289        C607   1.488   1_545  S
O290       Cr306   2.008       .  S
O291       Cr306   2.008       .  S
O291        C292   1.272       .  A
C292        O293   1.268       .  A
C292        C387   1.479       .  S
O293       Cr307   2.004       .  S
O294       Cr307   1.970       .  S
O294        C295   1.260       .  A
C295        C427   1.485       .  S
O296       Cr305   1.961       .  S
O296        C304   1.257       .  A
O297       Cr305   2.019       .  S
O297        C298   1.268       .  A
C298        O299   1.268       .  A
C298        C417   1.483       .  S
O299       Cr306   2.003       .  S
O300       Cr306   1.990       .  S
O300        C301   1.260       .  A
C301        O302   1.255       .  A
C301        C367   1.480       .  S
O302       Cr307   1.978       .  S
O303       Cr307   1.993       .  S
O303        C304   1.261       .  A
C304        C447   1.469       .  S
Cr305       O308   1.770       .  S
Cr306       O308   1.775       .  S
Cr307       O308   1.773       .  S
O309       Cr327   1.958       .  S
O309        C317   1.258       .  A
O310       Cr327   2.002       .  S
O310        C311   1.269       .  A
C311        O312   1.268       .  A
C311        C354   1.470       .  S
O312       Cr328   1.995       .  S
O313       Cr328   1.995       .  S
O313        C314   1.258       .  A
C314        O315   1.262       .  A
C314        C694   1.487       .  S
O315       Cr329   1.987       .  S
O316       Cr329   2.001       .  S
O316        C317   1.265       .  A
C317       C1369   1.479       .  S
O318       Cr327   1.996       .  S
O318        C326   1.261       .  A
O319       Cr327   1.980       .  S
O319        C320   1.255       .  A
C320        O321   1.261       .  A
C320        C374   1.484       .  S
O321       Cr328   2.007       .  S
O322       Cr328   1.981       .  S
O322        C323   1.270       .  A
C323        O324   1.265       .  A
C323        C547   1.472       .  S
O324       Cr329   1.986       .  S
O325       Cr329   1.976       .  S
O325        C326   1.258       .  A
C326        C497   1.479       .  S
Cr327       O330   1.773       .  S
Cr328       O330   1.781       .  S
Cr329       O330   1.780       .  S
O331       Cr349   1.994       .  S
O331        C339   1.264       .  A
O332       Cr349   1.962       .  S
O332        C333   1.261       .  A
C333        O334   1.274       .  A
C333        C357   1.474       .  S
O334       Cr350   2.032       .  S
O335       Cr350   1.995       .  S
O335        C336   1.263       .  A
C336        O337   1.259       .  A
C336        C567   1.485       .  S
O337       Cr351   1.980       .  S
O338       Cr351   1.982       .  S
O338        C339   1.263       .  A
C339        C397   1.466       .  S
O340       Cr349   1.993       .  S
O340        C348   1.262       .  A
O341       Cr349   1.993       .  S
O341        C342   1.258       .  A
C342        O343   1.257       .  A
C342        C524   1.478       .  S
O343       Cr350   1.981       .  S
O344       Cr350   2.017       .  S
O344        C345   1.268       .  A
C345        O346   1.257       .  A
C345        C407   1.464       .  S
O346       Cr351   1.943       .  S
O347       Cr351   1.983       .  S
O347        C348   1.260       .  A
C348        C364   1.479       .  S
Cr349       O352   1.769       .  S
Cr350       O352   1.780       .  S
Cr351       O352   1.764       .  S
C353        C354   1.404       .  A
C353       C1190   1.401       .  A
C353        F360   1.357       .  S
C354        C355   1.405       .  A
C355       C1188   1.401       .  A
C355        F362   1.358       .  S
C356        C357   1.405       .  A
C356       C1187   1.401       .  A
C356        F361   1.358       .  S
C357        C358   1.407       .  A
C358       C1185   1.399   1_554  A
C358        F359   1.358   1_554  S
C363        C364   1.408       .  A
C363        C368   1.403       .  A
C363        F370   1.358       .  S
C364        C365   1.410       .  A
C365        C366   1.385       .  A
C365        F372   1.359       .  S
C366        C367   1.406       .  A
C366        F371   1.359       .  S
C367        C368   1.411       .  A
C368        F369   1.358       .  S
C373        C374   1.409       .  A
C373        C378   1.396       .  A
C373        F380   1.358       .  S
C374        C375   1.408       .  A
C375        C376   1.402       .  A
C375        F382   1.358       .  S
C376        C377   1.410       .  A
C376        F381   1.358       .  S
C377        C378   1.407       .  A
C378        F379   1.358       .  S
C383        C384   1.406       .  A
C383        C388   1.405       .  A
C383        F390   1.358       .  S
C384        C385   1.407       .  A
C385        C386   1.405       .  A
C385        F392   1.358       .  S
C386        C387   1.405       .  A
C386        F391   1.358       .  S
C387        C388   1.407       .  A
C388        F389   1.358       .  S
C393        C394   1.416       .  A
C393        C398   1.397       .  A
C393        F400   1.358       .  S
C394        C395   1.403       .  A
C395       C1228   1.391       .  A
C395        F402   1.358       .  S
C396        C397   1.409   1_556  A
C396       C1227   1.394       .  A
C396        F401   1.359   1_556  S
C397       C1230   1.395   1_554  A
C398       C1229   1.398       .  A
C398        F399   1.358       .  S
C403        C404   1.411       .  A
C403        C408   1.384       .  A
C403        F410   1.359       .  S
C404        C405   1.412       .  A
C405        C406   1.401       .  A
C405        F412   1.357       .  S
C406        C407   1.404       .  A
C406        F411   1.358       .  S
C407        C408   1.402       .  A
C408        F409   1.360       .  S
C413        C414   1.415       .  A
C413        C418   1.411       .  A
C413        F420   1.358   1_554  S
C414       C1083   1.502   1_554  S
C414        C415   1.415       .  A
C415        C416   1.400       .  A
C415       F1254   1.358       .  S
C416        C417   1.401       .  A
C416        F421   1.358       .  S
C417        C418   1.406       .  A
C418        F419   1.357       .  S
F422       C1247   1.358       .  S
C423        C424   1.407       .  A
C423        C428   1.405       .  A
C423        F430   1.358       .  S
C424        C425   1.402       .  A
C425        C426   1.400       .  A
C425        F432   1.358       .  S
C426        C427   1.411       .  A
C426        F431   1.358       .  S
C427        C428   1.408       .  A
C428        F429   1.358       .  S
C433        C434   1.411       .  A
C433        C438   1.389       .  A
C433        F440   1.358       .  S
C434        C435   1.410       .  A
C435        C436   1.402       .  A
C435        F442   1.358       .  S
C436        C437   1.407       .  A
C436        F441   1.358       .  S
C437        C438   1.402       .  A
C438        F439   1.358       .  S
C443        C444   1.410       .  A
C443        C448   1.389       .  A
C443        F450   1.357       .  S
C444        C445   1.406       .  A
C445        C446   1.399       .  A
C445        F452   1.357       .  S
C446        C447   1.407       .  A
C446        F451   1.358       .  S
C447        C448   1.402       .  A
C448        F449   1.359       .  S
C453        C454   1.405   1_556  A
C453       C1290   1.405       .  A
C453       F1292   1.356       .  S
C454        C455   1.407       .  A
C455        C456   1.406       .  A
C455        F462   1.355       .  S
C456       C1289   1.405   1_554  A
C456        F461   1.358       .  S
C457        C458   1.407       .  A
C457       C1288   1.407       .  A
C458       C1285   1.403       .  A
C458        F459   1.358       .  S
F460       C1285   1.358       .  S
C463        C464   1.403       .  A
C463        C468   1.400       .  A
C463        F470   1.358       .  S
C464        C465   1.408       .  A
C465        C466   1.402       .  A
C465        F472   1.358       .  S
C466        C467   1.405       .  A
C466        F471   1.358       .  S
C467        C468   1.410       .  A
C468        F469   1.358       .  S
C473        C478   1.395       .  A
C473       C1306   1.397       .  A
C473        F480   1.358       .  S
C474        C475   1.410       .  A
C474       C1305   1.399   1_554  A
C475       C1308   1.407   1_554  A
C475        F482   1.358       .  S
C476        C477   1.408       .  A
C476       C1307   1.403       .  A
C476        F481   1.357       .  S
C477        C478   1.416       .  A
C478        F479   1.358       .  S
C483        C484   1.400       .  A
C483        C488   1.393       .  A
C483        F490   1.359       .  S
C484        C485   1.405       .  A
C485        C486   1.400       .  A
C485        F492   1.358       .  S
C486        C487   1.409       .  A
C486        F491   1.358       .  S
C487        C488   1.414       .  A
C488        F489   1.358       .  S
C493        C494   1.412       .  A
C493        C498   1.396       .  A
C493        F500   1.358       .  S
C494        C495   1.412       .  A
C495        C496   1.404       .  A
C495        F502   1.358       .  S
C496        C497   1.407       .  A
C496        F501   1.358       .  S
C497        C498   1.403       .  A
C498        F499   1.358       .  S
C503        C504   1.406       .  A
C503        C508   1.404       .  A
C503        F510   1.357       .  S
C504        C505   1.403       .  A
C505        C506   1.393       .  A
C505        F512   1.358       .  S
C506        C507   1.412       .  A
C506        F511   1.359       .  S
C507        C508   1.409       .  A
C508        F509   1.357       .  S
C513        C514   1.408       .  A
C513        C518   1.400       .  A
C513        F520   1.358       .  S
C514        C515   1.408       .  A
C515        C516   1.405       .  A
C515        F522   1.358       .  S
C516        C517   1.405       .  A
C516        F521   1.358       .  S
C517        C518   1.405       .  A
C518        F519   1.358       .  S
C523        C524   1.403       .  A
C523        C528   1.395       .  A
C523        F530   1.358       .  S
C524        C525   1.409       .  A
C525        C526   1.403       .  A
C525        F532   1.358       .  S
C526        C527   1.406       .  A
C526        F531   1.358       .  S
C527        C528   1.411       .  A
C528        F529   1.358       .  S
C533        C534   1.402       .  A
C533        C538   1.386       .  A
C533        F540   1.359       .  S
C534        C535   1.402       .  A
C535        C536   1.402       .  A
C535        F542   1.358       .  S
C536        C537   1.412       .  A
C536       F1373   1.357   1_554  S
C537       C1149   1.480   1_554  S
C537        C538   1.410       .  A
C538        F539   1.359       .  S
F541       C1368   1.357       .  S
C543        C544   1.397       .  A
C543        C548   1.396       .  A
C543        F550   1.358       .  S
C544        C545   1.408       .  A
C545        C546   1.389       .  A
C545        F552   1.358       .  S
C546        C547   1.402       .  A
C546        F551   1.358       .  S
C547        C548   1.416       .  A
C548        F549   1.358       .  S
C553        C554   1.407       .  A
C553        C558   1.402       .  A
C553        F560   1.358   1_455  S
C554        C555   1.407       .  A
C555        C556   1.403       .  A
C555        F562   1.358       .  S
C556        C557   1.409       .  A
C556        F561   1.358       .  S
C557        C558   1.409       .  A
C558        F559   1.358       .  S
C563        C564   1.406       .  A
C563        C568   1.395       .  A
C563        F570   1.358       .  S
C564        C565   1.419       .  A
C565        C566   1.406       .  A
C565        F572   1.358       .  S
C566        C567   1.402       .  A
C566        F571   1.357       .  S
C567        C568   1.412       .  A
C568        F569   1.359       .  S
C573        C574   1.406       .  A
C573        C578   1.401       .  A
C573        F580   1.358       .  S
C574        C575   1.407   1_565  A
C575        C576   1.410       .  A
C575        F582   1.358       .  S
C576        C577   1.408       .  A
C576        F581   1.357       .  S
C577        C578   1.406   1_545  A
C578        F579   1.358       .  S
C583        C584   1.416       .  A
C583        C588   1.396       .  A
C583        F590   1.359       .  S
C584        C585   1.406       .  A
C585        C586   1.413       .  A
C585        F592   1.357       .  S
C586        C587   1.419       .  A
C586        F591   1.358       .  S
C587        C588   1.405       .  A
C588        F589   1.358       .  S
C593        C594   1.407       .  A
C593        C598   1.398       .  A
C593        F600   1.358       .  S
C594        C595   1.405       .  A
C595        C596   1.401       .  A
C595        F602   1.358       .  S
C596        C597   1.406       .  A
C596        F601   1.358       .  S
C597        C598   1.403       .  A
C598        F599   1.358       .  S
C603        C604   1.412       .  A
C603        C608   1.392       .  A
C603        F610   1.359   1_655  S
C604        C605   1.406       .  A
C605        C606   1.407       .  A
C605        F612   1.358       .  S
C606        C607   1.415       .  A
C606        F611   1.358       .  S
C607        C608   1.406       .  A
C608        F609   1.358   1_565  S
C613        C614   1.405       .  A
C613        C618   1.388       .  A
C613        F620   1.359       .  S
C614        C615   1.409       .  A
C615        C616   1.402       .  A
C615        F622   1.358       .  S
C616        C617   1.407       .  A
C616        F621   1.358       .  S
C617        C618   1.407       .  A
C618        F619   1.358       .  S
C623        C624   1.408       .  A
C623       C1460   1.403       .  A
C623        F630   1.358       .  S
C624        C625   1.409   1_554  A
C625       C1458   1.402       .  A
C625        F632   1.358       .  S
C626        C627   1.408       .  A
C626       C1457   1.404       .  A
C626        F631   1.358       .  S
C627        C628   1.407       .  A
C628       C1455   1.402       .  A
C628        F629   1.358       .  S
C633        C634   1.413       .  A
C633        C638   1.386       .  A
C633        F640   1.359       .  S
C634        C635   1.410       .  A
C635        C636   1.404       .  A
C635        F642   1.358       .  S
C636        C637   1.406       .  A
C636        F641   1.358       .  S
C637        C638   1.400       .  A
C638        F639   1.359       .  S
C643        C644   1.408   1_556  A
C643       C1480   1.389       .  A
C643        F650   1.358   1_556  S
C644       C1477   1.400   1_554  A
C645        C646   1.402       .  A
C645       C1476   1.401       .  A
C645        F652   1.357       .  S
C646        C647   1.412       .  A
C646        F651   1.358       .  S
C647        C648   1.403       .  A
C648       C1475   1.393       .  A
C648        F649   1.359       .  S
C653        C654   1.406       .  A
C653        C658   1.400       .  A
C653        F660   1.358       .  S
C654        C655   1.409       .  A
C655        C656   1.400       .  A
C655        F662   1.358       .  S
C656        C657   1.407       .  A
C656        F661   1.358   1_455  S
C657        C658   1.409       .  A
C658        F659   1.358       .  S
C663        C664   1.398       .  A
C663        C668   1.390       .  A
C663        F670   1.357       .  S
C664        C665   1.405       .  A
C665        C666   1.399       .  A
C665        F672   1.358       .  S
C666        C667   1.405       .  A
C666        F671   1.358       .  S
C667        C668   1.408       .  A
C668        F669   1.358       .  S
C673        C674   1.399       .  A
C673        C678   1.398       .  A
C673        F680   1.357       .  S
C674        C951   1.470   1_554  S
C674        C675   1.412       .  A
C675        C676   1.390       .  A
C675       F1514   1.359   1_554  S
C676        C677   1.400       .  A
C676        F681   1.358       .  S
C677        C678   1.415       .  A
C678        F679   1.358       .  S
F682       C1507   1.359       .  S
C683        C684   1.404       .  A
C683        C688   1.391       .  A
C683        F690   1.359       .  S
C684        C685   1.407       .  A
C685        C686   1.400       .  A
C685        F692   1.358       .  S
C686        C687   1.408       .  A
C686        F691   1.358       .  S
C687        C688   1.410       .  A
C688        F689   1.358       .  S
C693        C694   1.411       .  A
C693        C698   1.405       .  A
C693        F700   1.358       .  S
C694        C695   1.407       .  A
C695        C696   1.401       .  A
C695        F702   1.358       .  S
C696        C697   1.410       .  A
C696        F701   1.358       .  S
C697        C698   1.406       .  A
C698        F699   1.358       .  S
C703        C704   1.409       .  A
C703        C708   1.393       .  A
C703        F710   1.359       .  S
C704        C705   1.406       .  A
C705        C706   1.405       .  A
C705        F712   1.357       .  S
C706        C707   1.412       .  A
C706        F711   1.358       .  S
C707        C708   1.406       .  A
C708        F709   1.358       .  S
C713        C714   1.406       .  A
C713        C718   1.406       .  A
C713        F720   1.357       .  S
C714        C715   1.407       .  A
C715        C716   1.402       .  A
C715        F722   1.358       .  S
C716        C717   1.404       .  A
C716        F721   1.357       .  S
C717        C718   1.406       .  A
C718        F719   1.358       .  S
C723        C724   1.406       .  A
C723        C728   1.410       .  A
C723        F730   1.357       .  S
C724        C725   1.411       .  A
C725        C726   1.393       .  A
C725        F732   1.358       .  S
C726        C727   1.402       .  A
C726        F731   1.359       .  S
C727        C728   1.411       .  A
C728        F729   1.357       .  S
C733        C734   1.413       .  A
C733        C738   1.399       .  A
C733        F740   1.358       .  S
C734        C735   1.399       .  A
C735       C1568   1.390       .  A
C735        F742   1.358       .  S
C736        C737   1.410       .  A
C736       C1567   1.392   1_554  A
C736        F741   1.358       .  S
C737       C1570   1.399   1_554  A
C738       C1569   1.400       .  A
C738        F739   1.357       .  S
C743        C744   1.406       .  A
C743        C748   1.402       .  A
C743        F750   1.358       .  S
C744        C745   1.411       .  A
C745        C746   1.389       .  A
C745        F752   1.359       .  S
C746        C747   1.399       .  A
C746        F751   1.358       .  S
C747        C748   1.407       .  A
C748        F749   1.356       .  S
C753        C754   1.412       .  A
C753        C758   1.406       .  A
C753        F760   1.358       .  S
C754        C755   1.407       .  A
C755        C756   1.390       .  A
C755        F762   1.359       .  S
C756        C757   1.410       .  A
C756        F761   1.359       .  S
C757        C758   1.408       .  A
C758        F759   1.357       .  S
C763        C764   1.411       .  A
C763        C768   1.401       .  A
C763        F770   1.358       .  S
C764        C765   1.407       .  A
C765        C766   1.393       .  A
C765        F772   1.358       .  S
C766        C767   1.406       .  A
C766        F771   1.357       .  S
C767        C768   1.405       .  A
C768        F769   1.358       .  S
C773        C774   1.398       .  A
C773        C778   1.400       .  A
C773        F780   1.358       .  S
C774        C775   1.416       .  A
C775        C776   1.404       .  A
C775        F782   1.355       .  S
C776        C777   1.398       .  A
C776        F781   1.358       .  S
C777        C778   1.414       .  A
C778        F779   1.355       .  S
C783        C784   1.404       .  A
C783        C788   1.399       .  A
C783        F790   1.358       .  S
C784        C785   1.401       .  A
C785        C786   1.393       .  A
C785        F792   1.357       .  S
C786        C787   1.405       .  A
C786        F791   1.359       .  S
C787        C788   1.404       .  A
C788        F789   1.358       .  S
C793        C798   1.408       .  A
C793       C1626   1.407   1_554  A
C793       F1632   1.358       .  S
C794        C795   1.404       .  A
C794       C1625   1.407       .  A
C795       C1628   1.402       .  A
C795        F802   1.358       .  S
C796        C797   1.408   1_556  A
C796       C1627   1.401       .  A
C796        F801   1.358       .  S
C797        C798   1.410       .  A
C798        F799   1.357       .  S
F800       C1625   1.358       .  S
C803        C804   1.407       .  A
C803        C808   1.391       .  A
C803        F810   1.358       .  S
C804        C805   1.410       .  A
C805        C806   1.399       .  A
C805        F812   1.358       .  S
C806        C807   1.405       .  A
C806        F811   1.358       .  S
C807        C808   1.406       .  A
C808        F809   1.358       .  S
C813        C814   1.402       .  A
C813        C818   1.397       .  A
C813        F820   1.358       .  S
C814        C815   1.404       .  A
C815        C816   1.394       .  A
C815        F822   1.354       .  S
C816        C817   1.404       .  A
C816        F821   1.358       .  S
C817        C818   1.409       .  A
C818        F819   1.358       .  S
C823        C824   1.405       .  A
C823        C828   1.400       .  A
C823       F1662   1.358   1_554  S
C824        C841   1.466   1_554  S
C824        C825   1.397       .  A
C825        C826   1.396       .  A
C825        F832   1.358       .  S
C826        C827   1.416       .  A
C826        F831   1.358       .  S
C827        C828   1.408       .  A
C828        F829   1.358       .  S
F830       C1655   1.358       .  S
O833       Cr851   1.999       .  S
O833        C841   1.262       .  A
O834       Cr851   1.994       .  S
O834        C835   1.265       .  A
C835        O836   1.260       .  A
C835       C1606   1.480       .  S
O836       Cr852   1.990       .  S
O837       Cr852   2.011       .  S
O837        C838   1.273       .  A
C838        O839   1.267       .  A
C838       C1626   1.479       .  S
O839       Cr853   1.995       .  S
O840       Cr853   1.978       .  S
O840        C841   1.261       .  A
O842       Cr851   1.970       .  S
O842        C850   1.259       .  A
O843       Cr851   1.990       .  S
O843        C844   1.260       .  A
C844        O845   1.267       .  A
C844       C1646   1.470       .  S
O845       Cr852   2.000       .  S
O846       Cr852   1.969       .  S
O846        C847   1.255       .  A
C847        O848   1.262       .  A
C847       C1619   1.484       .  S
O848       Cr853   2.004       .  S
O849       Cr853   1.997       .  S
O849        C850   1.261       .  A
C850       C1636   1.477       .  S
Cr851       O854   1.778       .  S
Cr852       O854   1.771       .  S
Cr853       O854   1.774       .  S
O855       Cr873   1.987       .  S
O855        C863   1.263       .  A
O856       Cr873   1.988       .  S
O856        C857   1.262       .  A
C857        O858   1.264       .  A
C857       C1556   1.488       .  S
O858       Cr874   1.998       .  S
O859       Cr874   2.055       .  S
O859        C860   1.279       .  A
C860        O861   1.261       .  A
C860       C1629   1.490       .  S
O861       Cr875   1.961       .  S
O862       Cr875   1.982       .  S
O862        C863   1.261       .  A
C863       C1569   1.471       .  S
O864       Cr873   1.992       .  S
O864        C872   1.263       .  A
O865       Cr873   1.945       .  S
O865        C866   1.255       .  A
C866        O867   1.273       .  A
C866       C1576   1.482       .  S
O867       Cr874   2.035       .  S
O868       Cr874   1.986       .  S
O868        C869   1.257       .  A
C869        O870   1.257       .  A
C869       C1599   1.479       .  S
O870       Cr875   1.990       .  S
O871       Cr875   1.993       .  S
O871        C872   1.265       .  A
C872       C1589   1.479       .  S
Cr873       O876   1.765       .  S
Cr874       O876   1.781       .  S
Cr875       O876   1.766       .  S
O877       Cr895   1.970       .  S
O877        C885   1.261       .  A
O878       Cr895   1.995       .  S
O878        C879   1.262       .  A
C879        O880   1.268       .  A
C879       C1546   1.479       .  S
O880       Cr896   2.011       .  S
O881       Cr896   2.009       .  S
O881        C882   1.265       .  A
C882        O883   1.264       .  A
C882       C1529   1.484       .  S
O883       Cr897   1.976       .  S
O884       Cr897   2.014       .  S
O884        C885   1.266       .  A
C885       C1579   1.472       .  S
O886       Cr895   1.994       .  S
O886        C894   1.259       .  A
O887       Cr895   1.968       .  S
O887        C888   1.258       .  A
C888        O889   1.267       .  A
C888       C1539   1.481       .  S
O889       Cr896   2.013       .  S
O890       Cr896   1.990       .  S
O890        C891   1.267       .  A
C891        O892   1.261       .  A
C891       C1566   1.478       .  S
O892       Cr897   1.989       .  S
O893       Cr897   1.971       .  S
O893        C894   1.258       .  A
C894       C1616   1.467       .  S
Cr895       O898   1.773       .  S
Cr896       O898   1.777       .  S
Cr897       O898   1.776       .  S
O899       Cr917   1.967       .  S
O899        C907   1.259       .  A
O900       Cr917   2.007       .  S
O900        C901   1.266       .  A
C901        O902   1.267       .  A
C901       C1549   1.480       .  S
O902       Cr918   2.004       .  S
O903       Cr918   2.005       .  S
O903        C904   1.264       .  A
C904        O905   1.261       .  A
C904       C1486   1.477       .  S
O905       Cr919   1.973       .  S
O906       Cr919   2.011       .  S
O906        C907   1.265       .  A
C907       C1496   1.464       .  S
O908       Cr917   2.012       .  S
O908        C916   1.264       .  A
O909       Cr917   1.979       .  S
O909        C910   1.259       .  A
C910        O911   1.266       .  A
C910       C1586   1.481       .  S
O911       Cr918   2.000       .  S
O912       Cr918   1.991       .  S
O912        C913   1.266       .  A
C913        O914   1.262       .  A
C913       C1509   1.479       .  S
O914       Cr919   1.994       .  S
O915       Cr919   1.970       .  S
O915        C916   1.257       .  A
C916       C1516   1.482       .  S
Cr917       O920   1.768       .  S
Cr918       O920   1.773       .  S
Cr919       O920   1.770       .  S
O921       Cr939   1.990       .  S
O921        C929   1.265       .  A
O922       Cr939   1.975       .  S
O922        C923   1.259   1_455  A
C923        O924   1.265       .  A
C923       C1436   1.489       .  S
O924       Cr940   1.995   1_655  S
O925       Cr940   2.039       .  S
O925        C926   1.276       .  A
C926        O927   1.262       .  A
C926       C1456   1.486   1_455  S
O927       Cr941   1.969       .  S
O928       Cr941   1.994       .  S
O928        C929   1.264       .  A
C929       C1476   1.475       .  S
O930       Cr939   1.978       .  S
O930        C938   1.259       .  A
O931       Cr939   1.956       .  S
O931        C932   1.259       .  A
C932        O933   1.267       .  A
C932       C1469   1.466       .  S
O933       Cr940   2.018       .  S
O934       Cr940   1.988       .  S
O934        C935   1.258       .  A
C935        O936   1.259       .  A
C935       C1519   1.481       .  S
O936       Cr941   1.994       .  S
O937       Cr941   1.994       .  S
O937        C938   1.262       .  A
C938       C1449   1.470       .  S
Cr939       O942   1.766       .  S
Cr940       O942   1.780       .  S
Cr941       O942   1.767       .  S
O943       Cr961   1.989       .  S
O943        C951   1.264       .  A
O944       Cr961   1.979       .  S
O944        C945   1.258   1_455  A
C945        O946   1.264       .  A
C945       C1416   1.488       .  S
O946       Cr962   2.005   1_655  S
O947       Cr962   2.036       .  S
O947        C948   1.276       .  A
C948        O949   1.262       .  A
C948       C1459   1.484   1_455  S
O949       Cr963   1.968       .  S
O950       Cr963   1.977       .  S
O950        C951   1.260       .  A
O952       Cr961   1.988       .  S
O952        C960   1.262       .  A
O953       Cr961   1.950       .  S
O953        C954   1.259       .  A
C954        O955   1.272       .  A
C954       C1499   1.475       .  S
O955       Cr962   2.026       .  S
O956       Cr962   1.993       .  S
O956        C957   1.260       .  A
C957        O958   1.255       .  A
C957       C1426   1.475       .  S
O958       Cr963   1.980       .  S
O959       Cr963   1.997       .  S
O959        C960   1.264       .  A
C960       C1536   1.477       .  S
Cr961       O964   1.774       .  S
Cr962       O964   1.786       .  S
Cr963       O964   1.771       .  S
O965       Cr983   1.958       .  S
O965        C973   1.258       .  A
O966       Cr983   2.004       .  S
O966        C967   1.268       .  A
C967        O968   1.271   1_565  A
C967       C1406   1.479       .  S
O968       Cr984   2.008   1_545  S
O969       Cr984   2.006   1_545  S
O969        C970   1.264       .  A
C970        O971   1.265   1_545  A
C970       C1396   1.496       .  S
O971       Cr985   1.986       .  S
O972       Cr985   2.007       .  S
O972        C973   1.267       .  A
C973       C1649   1.467       .  S
O974       Cr983   2.000       .  S
O974        C982   1.261       .  A
O975       Cr983   1.970       .  S
O975        C976   1.254       .  A
C976        O977   1.262       .  A
C976       C1446   1.471       .  S
O977       Cr984   1.991       .  S
O978       Cr984   2.003       .  S
O978        C979   1.268       .  A
C979        O980   1.262       .  A
C979       C1659   1.486       .  S
O980       Cr985   1.990       .  S
O981       Cr985   1.976       .  S
O981        C982   1.258       .  A
C982       C1596   1.476       .  S
Cr983       O986   1.773       .  S
Cr984       O986   1.772       .  S
Cr985       O986   1.767       .  S
O987      Cr1005   1.950       .  S
O987        C995   1.257       .  A
O988      Cr1005   2.006       .  S
O988        C989   1.267       .  A
C989        O990   1.269   1_565  A
C989       C1409   1.478   1_565  S
O990      Cr1006   2.005   1_545  S
O991      Cr1006   1.991   1_545  S
O991        C992   1.258       .  A
C992        O993   1.260       .  A
C992       C1389   1.483       .  S
O993      Cr1007   1.981   1_545  S
O994      Cr1007   2.013       .  S
O994        C995   1.268       .  A
C995       C1466   1.480       .  S
O996      Cr1005   1.994       .  S
O996       C1004   1.260       .  A
O997      Cr1005   1.976       .  S
O997        C998   1.256       .  A
C998        O999   1.263       .  A
C998       C1639   1.475       .  S
O999      Cr1006   2.001       .  S
O1000     Cr1006   1.978       .  S
O1000      C1001   1.268       .  A
C1001      O1002   1.267       .  A
C1001      C1479   1.474       .  S
O1002     Cr1007   1.999       .  S
O1003     Cr1007   1.979       .  S
O1003      C1004   1.257       .  A
C1004      C1429   1.472       .  S
Cr1005     O1008   1.768       .  S
Cr1006     O1008   1.778       .  S
Cr1007     O1008   1.782       .  S
O1009     Cr1027   1.986       .  S
O1009      C1017   1.262       .  A
O1010     Cr1027   1.988       .  S
O1010      C1011   1.263       .  A
C1011      O1012   1.263       .  A
C1011      C1559   1.481       .  S
O1012     Cr1028   1.993       .  S
O1013     Cr1028   2.038       .  S
O1013      C1014   1.275       .  A
C1014      O1015   1.264       .  A
C1014      C1346   1.482       .  S
O1015     Cr1029   1.973       .  S
O1016     Cr1029   1.978       .  S
O1016      C1017   1.260       .  A
C1017      C1376   1.465       .  S
O1018     Cr1027   2.001       .  S
O1018      C1026   1.263       .  A
O1019     Cr1027   1.953       .  S
O1019      C1020   1.257       .  A
C1020      O1021   1.267       .  A
C1020      C1366   1.461       .  S
O1021     Cr1028   2.014       .  S
O1022     Cr1028   1.992       .  S
O1022      C1023   1.258       .  A
C1023      O1024   1.255       .  A
C1023      C1339   1.480       .  S
O1024     Cr1029   1.975       .  S
O1025     Cr1029   2.000       .  S
O1025      C1026   1.265       .  A
C1026      C1359   1.483       .  S
Cr1027     O1030   1.767       .  S
Cr1028     O1030   1.782       .  S
Cr1029     O1030   1.763       .  S
O1031     Cr1049   2.002       .  S
O1031      C1039   1.264       .  A
O1032     Cr1049   1.988       .  S
O1032      C1033   1.263       .  A
C1033      O1034   1.261       .  A
C1033      C1419   1.498       .  S
O1034     Cr1050   2.007       .  S
O1035     Cr1050   2.006       .  S
O1035      C1036   1.273       .  A
C1036      O1037   1.269       .  A
C1036      C1349   1.475       .  S
O1037     Cr1051   1.996       .  S
O1038     Cr1051   1.975       .  S
O1038      C1039   1.261       .  A
C1039      C1296   1.479       .  S
O1040     Cr1049   1.974       .  S
O1040      C1048   1.259       .  A
O1041     Cr1049   1.994       .  S
O1041      C1042   1.265       .  A
C1042      O1043   1.270       .  A
C1042      C1309   1.484       .  S
O1043     Cr1050   2.006       .  S
O1044     Cr1050   1.997       .  S
O1044      C1045   1.258       .  A
C1045      O1046   1.256       .  A
C1045      C1326   1.485       .  S
O1046     Cr1051   1.987       .  S
O1047     Cr1051   1.985       .  S
O1047      C1048   1.259       .  A
C1048      C1316   1.470       .  S
Cr1049     O1052   1.778       .  S
Cr1050     O1052   1.786       .  S
Cr1051     O1052   1.777       .  S
O1053     Cr1071   1.969       .  S
O1053      C1061   1.257       .  A
O1054     Cr1071   2.000       .  S
O1054      C1055   1.266       .  A
C1055      O1056   1.270       .  A
C1055      C1286   1.481       .  S
O1056     Cr1072   2.009       .  S
O1057     Cr1072   2.005       .  S
O1057      C1058   1.266       .  A
C1058      O1059   1.264       .  A
C1058      C1489   1.480   1_655  S
O1059     Cr1073   1.976       .  S
O1060     Cr1073   2.015       .  S
O1060      C1061   1.264       .  A
C1061      C1306   1.469       .  S
O1062     Cr1071   2.014       .  S
O1062      C1070   1.264       .  A
O1063     Cr1071   1.978       .  S
O1063      C1064   1.257       .  A
C1064      O1065   1.260       .  A
C1064      C1276   1.457       .  S
O1065     Cr1072   1.989       .  S
O1066     Cr1072   2.008       .  S
O1066      C1067   1.267       .  A
C1067      O1068   1.261       .  A
C1067      C1299   1.482       .  S
O1068     Cr1073   1.999       .  S
O1069     Cr1073   1.959       .  S
O1069      C1070   1.257       .  A
C1070      C1336   1.474       .  S
Cr1071     O1074   1.771       .  S
Cr1072     O1074   1.774       .  S
Cr1073     O1074   1.773       .  S
O1075     Cr1093   1.975       .  S
O1075      C1083   1.262       .  A
O1076     Cr1093   2.001       .  S
O1076      C1077   1.269       .  A
C1077      O1078   1.273       .  A
C1077      C1289   1.479       .  S
O1078     Cr1094   2.008       .  S
O1079     Cr1094   2.000       .  S
O1079      C1080   1.261       .  A
C1080      O1081   1.262       .  A
C1080      C1386   1.481   1_655  S
O1081     Cr1095   1.979       .  S
O1082     Cr1095   2.028       .  S
O1082      C1083   1.271       .  A
O1084     Cr1093   1.991       .  S
O1084      C1092   1.260       .  A
O1085     Cr1093   1.988       .  S
O1085      C1086   1.257       .  A
C1086      O1087   1.257       .  A
C1086      C1319   1.485       .  S
O1087     Cr1094   1.990       .  S
O1088     Cr1094   1.996       .  S
O1088      C1089   1.267       .  A
C1089      O1090   1.265       .  A
C1089      C1256   1.472       .  S
O1090     Cr1095   2.004       .  S
O1091     Cr1095   1.961       .  S
O1091      C1092   1.255       .  A
C1092      C1269   1.466       .  S
Cr1093     O1096   1.772       .  S
Cr1094     O1096   1.780       .  S
Cr1095     O1096   1.782       .  S
O1097     Cr1115   1.998       .  S
O1097      C1105   1.264       .  A
O1098     Cr1115   1.991       .  S
O1098      C1099   1.260   1_545  A
C1099      O1100   1.254   1_565  A
C1099      C1609   1.479       .  S
O1100     Cr1116   1.989       .  S
O1101     Cr1116   2.011       .  S
O1101      C1102   1.274       .  A
C1102      O1103   1.270       .  A
C1102      C1216   1.481       .  S
O1103     Cr1117   2.007       .  S
O1104     Cr1117   1.951       .  S
O1104      C1105   1.257       .  A
C1105      C1236   1.480       .  S
O1106     Cr1115   1.981       .  S
O1106      C1114   1.259       .  A
O1107     Cr1115   1.987       .  S
O1107      C1108   1.267       .  A
C1108      O1109   1.273       .  A
C1108      C1226   1.479       .  S
O1109     Cr1116   1.991       .  S
O1110     Cr1116   1.991       .  S
O1110      C1111   1.256       .  A
C1111      O1112   1.253       .  A
C1111      C1266   1.478       .  S
O1112     Cr1117   1.975       .  S
O1113     Cr1117   1.993       .  S
O1113      C1114   1.261       .  A
C1114      C1209   1.485       .  S
Cr1115     O1118   1.781       .  S
Cr1116     O1118   1.782       .  S
Cr1117     O1118   1.771       .  S
O1119     Cr1137   2.010       .  S
O1119      C1127   1.266       .  A
O1120     Cr1137   1.979       .  S
O1120      C1121   1.263       .  A
C1121      O1122   1.264       .  A
C1121      C1439   1.488   1_545  S
O1122     Cr1138   2.003       .  S
O1123     Cr1138   2.006       .  S
O1123      C1124   1.271       .  A
C1124      O1125   1.268       .  A
C1124      C1219   1.479       .  S
O1125     Cr1139   2.005       .  S
O1126     Cr1139   1.968       .  S
O1126      C1127   1.260       .  A
C1127      C1259   1.473       .  S
O1128     Cr1137   1.974       .  S
O1128      C1136   1.258       .  A
O1129     Cr1137   2.000       .  S
O1129      C1130   1.262       .  A
C1130      O1131   1.266       .  A
C1130      C1249   1.478       .  S
O1131     Cr1138   2.000       .  S
O1132     Cr1138   1.988       .  S
O1132      C1133   1.260       .  A
C1133      O1134   1.256       .  A
C1133      C1199   1.479       .  S
O1134     Cr1139   1.977       .  S
O1135     Cr1139   1.993       .  S
O1135      C1136   1.261       .  A
C1136      C1279   1.475       .  S
Cr1137     O1140   1.770       .  S
Cr1138     O1140   1.771       .  S
Cr1139     O1140   1.770       .  S
O1141     Cr1159   1.954       .  S
O1141      C1149   1.256       .  A
O1142     Cr1159   2.001       .  S
O1142      C1143   1.268       .  A
C1143      O1144   1.266       .  A
C1143      C1186   1.468       .  S
O1144     Cr1160   1.992       .  S
O1145     Cr1160   1.999       .  S
O1145      C1146   1.261       .  A
C1146      O1147   1.262       .  A
C1146      C1526   1.485       .  S
O1147     Cr1161   1.985       .  S
O1148     Cr1161   2.005       .  S
O1148      C1149   1.264       .  A
O1150     Cr1159   2.006       .  S
O1150      C1158   1.263       .  A
O1151     Cr1159   1.981       .  S
O1151      C1152   1.258       .  A
C1152      O1153   1.264       .  A
C1152      C1206   1.494       .  S
O1153     Cr1160   2.014       .  S
O1154     Cr1160   1.979       .  S
O1154      C1155   1.268       .  A
C1155      O1156   1.263       .  A
C1155      C1379   1.472       .  S
O1156     Cr1161   1.989       .  S
O1157     Cr1161   1.971       .  S
O1157      C1158   1.258       .  A
C1158      C1329   1.484       .  S
Cr1159     O1162   1.769       .  S
Cr1160     O1162   1.775       .  S
Cr1161     O1162   1.779       .  S
O1163     Cr1181   1.994       .  S
O1163      C1171   1.265       .  A
O1164     Cr1181   1.961       .  S
O1164      C1165   1.261       .  A
C1165      O1166   1.275       .  A
C1165      C1189   1.475       .  S
O1166     Cr1182   2.035       .  S
O1167     Cr1182   1.999       .  S
O1167      C1168   1.263       .  A
C1168      O1169   1.258       .  A
C1168      C1399   1.486       .  S
O1169     Cr1183   1.982       .  S
O1170     Cr1183   1.979       .  S
O1170      C1171   1.263       .  A
C1171      C1229   1.467       .  S
O1172     Cr1181   1.993       .  S
O1172      C1180   1.262       .  A
O1173     Cr1181   1.995       .  S
O1173      C1174   1.259       .  A
C1174      O1175   1.257       .  A
C1174      C1356   1.482       .  S
O1175     Cr1182   1.982       .  S
O1176     Cr1182   2.021       .  S
O1176      C1177   1.271       .  A
C1177      O1178   1.258       .  A
C1177      C1239   1.470       .  S
O1178     Cr1183   1.943       .  S
O1179     Cr1183   1.985       .  S
O1179      C1180   1.259       .  A
C1180      C1196   1.479       .  S
Cr1181     O1184   1.770       .  S
Cr1182     O1184   1.779       .  S
Cr1183     O1184   1.768       .  S
C1185      C1186   1.403       .  A
C1185      F1192   1.358       .  S
C1186      C1187   1.405   1_556  A
C1187      F1194   1.358       .  S
C1188      C1189   1.405       .  A
C1188      F1193   1.358       .  S
C1189      C1190   1.407       .  A
C1190      F1191   1.358       .  S
C1195      C1196   1.407       .  A
C1195      C1200   1.401       .  A
C1195      F1202   1.357       .  S
C1196      C1197   1.411       .  A
C1197      C1198   1.386       .  A
C1197      F1204   1.359       .  S
C1198      C1199   1.407       .  A
C1198      F1203   1.359       .  S
C1199      C1200   1.410       .  A
C1200      F1201   1.358       .  S
C1205      C1206   1.413       .  A
C1205      C1210   1.400       .  A
C1205      F1212   1.358       .  S
C1206      C1207   1.411       .  A
C1207      C1208   1.403       .  A
C1207      F1214   1.358       .  S
C1208      C1209   1.408       .  A
C1208      F1213   1.358       .  S
C1209      C1210   1.406       .  A
C1210      F1211   1.358       .  S
C1215      C1216   1.406       .  A
C1215      C1220   1.406       .  A
C1215      F1222   1.358       .  S
C1216      C1217   1.408       .  A
C1217      C1218   1.405       .  A
C1217      F1224   1.357       .  S
C1218      C1219   1.405       .  A
C1218      F1223   1.358       .  S
C1219      C1220   1.407       .  A
C1220      F1221   1.358       .  S
C1225      C1226   1.418       .  A
C1225      C1230   1.396       .  A
C1225      F1232   1.358       .  S
C1226      C1227   1.404       .  A
C1227      F1234   1.358       .  S
C1228      C1229   1.410       .  A
C1228      F1233   1.359       .  S
C1230      F1231   1.358       .  S
C1235      C1236   1.410       .  A
C1235      C1240   1.386       .  A
C1235      F1242   1.359       .  S
C1236      C1237   1.412       .  A
C1237      C1238   1.401       .  A
C1237      F1244   1.358       .  S
C1238      C1239   1.405       .  A
C1238      F1243   1.358       .  S
C1239      C1240   1.405       .  A
C1240      F1241   1.359       .  S
C1245      C1246   1.403       .  A
C1245      C1250   1.402       .  A
C1245      F1252   1.358       .  S
C1246      C1247   1.407       .  A
C1247      C1248   1.399       .  A
C1248      C1249   1.405       .  A
C1248      F1253   1.358       .  S
C1249      C1250   1.410       .  A
C1250      F1251   1.358       .  S
C1255      C1256   1.407       .  A
C1255      C1260   1.401       .  A
C1255      F1262   1.358       .  S
C1256      C1257   1.404       .  A
C1257      C1258   1.398       .  A
C1257      F1264   1.358       .  S
C1258      C1259   1.407       .  A
C1258      F1263   1.358       .  S
C1259      C1260   1.404       .  A
C1260      F1261   1.358       .  S
C1265      C1266   1.411       .  A
C1265      C1270   1.391       .  A
C1265      F1272   1.358       .  S
C1266      C1267   1.409       .  A
C1267      C1268   1.398       .  A
C1267      F1274   1.358       .  S
C1268      C1269   1.404       .  A
C1268      F1273   1.358       .  S
C1269      C1270   1.402       .  A
C1270      F1271   1.359       .  S
C1275      C1276   1.401       .  A
C1275      C1280   1.394       .  A
C1275      F1282   1.359       .  S
C1276      C1277   1.399       .  A
C1277      C1278   1.397       .  A
C1277      F1284   1.357       .  S
C1278      C1279   1.410       .  A
C1278      F1283   1.358       .  S
C1279      C1280   1.408       .  A
C1280      F1281   1.357       .  S
C1285      C1286   1.405       .  A
C1286      C1287   1.408       .  A
C1287      C1288   1.408       .  A
C1287      F1294   1.358       .  S
C1288      F1293   1.358       .  S
C1289      C1290   1.408       .  A
C1290      F1291   1.358       .  S
C1295      C1296   1.404       .  A
C1295      C1300   1.403       .  A
C1295      F1302   1.358       .  S
C1296      C1297   1.408       .  A
C1297      C1298   1.400       .  A
C1297      F1304   1.358       .  S
C1298      C1299   1.404       .  A
C1298      F1303   1.356       .  S
C1299      C1300   1.411       .  A
C1300      F1301   1.358       .  S
C1305      C1310   1.391       .  A
C1305      F1312   1.357       .  S
C1306      C1307   1.406       .  A
C1307      F1314   1.357       .  S
C1308      C1309   1.408       .  A
C1308      F1313   1.357       .  S
C1309      C1310   1.412       .  A
C1310      F1311   1.358       .  S
C1315      C1316   1.401       .  A
C1315      C1320   1.394       .  A
C1315      F1322   1.359       .  S
C1316      C1317   1.405       .  A
C1317      C1318   1.400       .  A
C1317      F1324   1.358       .  S
C1318      C1319   1.410       .  A
C1318      F1323   1.357       .  S
C1319      C1320   1.413       .  A
C1320      F1321   1.358       .  S
C1325      C1326   1.409       .  A
C1325      C1330   1.395       .  A
C1325      F1332   1.358       .  S
C1326      C1327   1.408       .  A
C1327      C1328   1.404       .  A
C1327      F1334   1.358       .  S
C1328      C1329   1.409       .  A
C1328      F1333   1.358       .  S
C1329      C1330   1.407       .  A
C1330      F1331   1.358       .  S
C1335      C1336   1.408       .  A
C1335      C1340   1.404       .  A
C1335      F1342   1.357       .  S
C1336      C1337   1.403       .  A
C1337      C1338   1.388       .  A
C1337      F1344   1.358       .  S
C1338      C1339   1.410       .  A
C1338      F1343   1.359       .  S
C1339      C1340   1.409       .  A
C1340      F1341   1.358       .  S
C1345      C1346   1.407       .  A
C1345      C1350   1.403       .  A
C1345      F1352   1.358       .  S
C1346      C1347   1.407       .  A
C1347      C1348   1.403       .  A
C1347      F1354   1.358       .  S
C1348      C1349   1.407       .  A
C1348      F1353   1.358       .  S
C1349      C1350   1.405       .  A
C1350      F1351   1.357       .  S
C1355      C1356   1.405       .  A
C1355      C1360   1.397       .  A
C1355      F1362   1.358       .  S
C1356      C1357   1.410       .  A
C1357      C1358   1.403       .  A
C1357      F1364   1.358       .  S
C1358      C1359   1.406       .  A
C1358      F1363   1.358       .  S
C1359      C1360   1.410       .  A
C1360      F1361   1.358       .  S
C1365      C1366   1.400       .  A
C1365      C1370   1.390       .  A
C1365      F1372   1.359       .  S
C1366      C1367   1.402       .  A
C1367      C1368   1.401       .  A
C1367      F1374   1.358       .  S
C1368      C1369   1.411       .  A
C1369      C1370   1.411       .  A
C1370      F1371   1.359       .  S
C1375      C1376   1.399       .  A
C1375      C1380   1.399       .  A
C1375      F1382   1.358       .  S
C1376      C1377   1.408       .  A
C1377      C1378   1.388       .  A
C1377      F1384   1.359       .  S
C1378      C1379   1.402       .  A
C1378      F1383   1.358       .  S
C1379      C1380   1.416       .  A
C1380      F1381   1.358       .  S
C1385      C1386   1.408       .  A
C1385      C1390   1.401       .  A
C1385      F1392   1.358   1_455  S
C1386      C1387   1.406       .  A
C1387      C1388   1.403       .  A
C1387      F1394   1.358       .  S
C1388      C1389   1.409       .  A
C1388      F1393   1.358       .  S
C1389      C1390   1.408       .  A
C1390      F1391   1.358       .  S
C1395      C1396   1.406       .  A
C1395      C1400   1.397       .  A
C1395      F1402   1.358       .  S
C1396      C1397   1.420       .  A
C1397      C1398   1.407       .  A
C1397      F1404   1.358       .  S
C1398      C1399   1.401       .  A
C1398      F1403   1.357       .  S
C1399      C1400   1.412       .  A
C1400      F1401   1.359       .  S
C1405      C1406   1.407       .  A
C1405      C1410   1.402       .  A
C1405      F1412   1.358       .  S
C1406      C1407   1.406   1_565  A
C1407      C1408   1.407       .  A
C1407      F1414   1.358       .  S
C1408      C1409   1.408       .  A
C1408      F1413   1.356       .  S
C1409      C1410   1.404   1_545  A
C1410      F1411   1.358       .  S
C1415      C1416   1.411       .  A
C1415      C1420   1.397       .  A
C1415      F1422   1.358       .  S
C1416      C1417   1.402       .  A
C1417      C1418   1.409       .  A
C1417      F1424   1.357       .  S
C1418      C1419   1.421       .  A
C1418      F1423   1.358       .  S
C1419      C1420   1.406       .  A
C1420      F1421   1.358       .  S
C1425      C1426   1.408       .  A
C1425      C1430   1.399       .  A
C1425      F1432   1.358       .  S
C1426      C1427   1.405       .  A
C1427      C1428   1.402       .  A
C1427      F1434   1.358       .  S
C1428      C1429   1.406       .  A
C1428      F1433   1.358       .  S
C1429      C1430   1.403       .  A
C1430      F1431   1.358       .  S
C1435      C1436   1.416       .  A
C1435      C1440   1.393       .  A
C1435      F1442   1.359   1_655  S
C1436      C1437   1.405       .  A
C1437      C1438   1.405       .  A
C1437      F1444   1.357       .  S
C1438      C1439   1.416       .  A
C1438      F1443   1.358       .  S
C1439      C1440   1.404       .  A
C1440      F1441   1.358   1_565  S
C1445      C1446   1.403       .  A
C1445      C1450   1.385       .  A
C1445      F1452   1.359       .  S
C1446      C1447   1.410       .  A
C1447      C1448   1.401       .  A
C1447      F1454   1.358       .  S
C1448      C1449   1.404       .  A
C1448      F1453   1.358       .  S
C1449      C1450   1.408       .  A
C1450      F1451   1.359       .  S
C1455      C1456   1.408       .  A
C1455      F1462   1.358       .  S
C1456      C1457   1.409       .  A
C1457      F1464   1.358       .  S
C1458      C1459   1.407       .  A
C1458      F1463   1.358       .  S
C1459      C1460   1.409   1_556  A
C1460      F1461   1.358       .  S
C1465      C1466   1.412       .  A
C1465      C1470   1.388       .  A
C1465      F1472   1.359       .  S
C1466      C1467   1.410       .  A
C1467      C1468   1.403       .  A
C1467      F1474   1.358       .  S
C1468      C1469   1.405       .  A
C1468      F1473   1.358       .  S
C1469      C1470   1.400       .  A
C1470      F1471   1.359       .  S
C1475      C1476   1.411       .  A
C1475      F1482   1.359       .  S
C1477      C1478   1.400       .  A
C1477      F1484   1.357       .  S
C1478      C1479   1.414       .  A
C1478      F1483   1.358       .  S
C1479      C1480   1.403       .  A
C1480      F1481   1.359       .  S
C1485      C1486   1.406       .  A
C1485      C1490   1.403       .  A
C1485      F1492   1.358       .  S
C1486      C1487   1.407       .  A
C1487      C1488   1.396       .  A
C1487      F1494   1.358       .  S
C1488      C1489   1.406       .  A
C1488      F1493   1.358   1_455  S
C1489      C1490   1.410       .  A
C1490      F1491   1.358       .  S
C1495      C1496   1.398       .  A
C1495      C1500   1.392       .  A
C1495      F1502   1.357       .  S
C1496      C1497   1.406       .  A
C1497      C1498   1.401       .  A
C1497      F1504   1.358       .  S
C1498      C1499   1.405       .  A
C1498      F1503   1.357       .  S
C1499      C1500   1.411       .  A
C1500      F1501   1.359       .  S
C1505      C1506   1.401       .  A
C1505      C1510   1.400       .  A
C1505      F1512   1.357       .  S
C1506      C1507   1.411       .  A
C1507      C1508   1.394       .  A
C1508      C1509   1.403       .  A
C1508      F1513   1.358       .  S
C1509      C1510   1.414       .  A
C1510      F1511   1.358       .  S
C1515      C1516   1.407       .  A
C1515      C1520   1.395       .  A
C1515      F1522   1.358       .  S
C1516      C1517   1.410       .  A
C1517      C1518   1.403       .  A
C1517      F1524   1.358       .  S
C1518      C1519   1.407       .  A
C1518      F1523   1.358       .  S
C1519      C1520   1.408       .  A
C1520      F1521   1.358       .  S
C1525      C1526   1.410       .  A
C1525      C1530   1.404       .  A
C1525      F1532   1.358       .  S
C1526      C1527   1.407       .  A
C1527      C1528   1.401       .  A
C1527      F1534   1.358       .  S
C1528      C1529   1.409       .  A
C1528      F1533   1.358       .  S
C1529      C1530   1.406       .  A
C1530      F1531   1.357       .  S
C1535      C1536   1.409       .  A
C1535      C1540   1.392       .  A
C1535      F1542   1.359       .  S
C1536      C1537   1.405       .  A
C1537      C1538   1.401       .  A
C1537      F1544   1.357       .  S
C1538      C1539   1.412       .  A
C1538      F1543   1.358       .  S
C1539      C1540   1.406       .  A
C1540      F1541   1.358       .  S
C1545      C1546   1.404       .  A
C1545      C1550   1.404       .  A
C1545      F1552   1.354       .  S
C1546      C1547   1.407       .  A
C1547      C1548   1.405       .  A
C1547      F1554   1.358       .  S
C1548      C1549   1.405       .  A
C1548      F1553   1.356       .  S
C1549      C1550   1.406       .  A
C1550      F1551   1.358       .  S
C1555      C1556   1.408       .  A
C1555      C1560   1.412       .  A
C1555      F1562   1.357       .  S
C1556      C1557   1.411       .  A
C1557      C1558   1.393       .  A
C1557      F1564   1.359       .  S
C1558      C1559   1.402       .  A
C1558      F1563   1.359       .  S
C1559      C1560   1.411       .  A
C1560      F1561   1.357       .  S
C1565      C1566   1.416       .  A
C1565      C1570   1.400       .  A
C1565      F1572   1.358       .  S
C1566      C1567   1.402       .  A
C1567      F1574   1.358       .  S
C1568      C1569   1.413       .  A
C1568      F1573   1.359       .  S
C1570      F1571   1.358       .  S
C1575      C1576   1.407       .  A
C1575      C1580   1.405       .  A
C1575      F1582   1.357       .  S
C1576      C1577   1.413       .  A
C1577      C1578   1.390       .  A
C1577      F1584   1.359       .  S
C1578      C1579   1.397       .  A
C1578      F1583   1.355       .  S
C1579      C1580   1.408       .  A
C1580      F1581   1.358       .  S
C1585      C1586   1.411       .  A
C1585      C1590   1.403       .  A
C1585      F1592   1.357       .  S
C1586      C1587   1.406       .  A
C1587      C1588   1.390       .  A
C1587      F1594   1.359       .  S
C1588      C1589   1.409       .  A
C1588      F1593   1.359       .  S
C1589      C1590   1.406       .  A
C1590      F1591   1.357       .  S
C1595      C1596   1.408       .  A
C1595      C1600   1.400       .  A
C1595      F1602   1.358       .  S
C1596      C1597   1.405       .  A
C1597      C1598   1.394       .  A
C1597      F1604   1.358       .  S
C1598      C1599   1.409       .  A
C1598      F1603   1.358       .  S
C1599      C1600   1.407       .  A
C1600      F1601   1.358       .  S
C1605      C1606   1.398       .  A
C1605      C1610   1.401       .  A
C1605      F1612   1.358       .  S
C1606      C1607   1.415       .  A
C1607      C1608   1.400       .  A
C1607      F1614   1.356       .  S
C1608      C1609   1.397       .  A
C1608      F1613   1.357       .  S
C1609      C1610   1.415       .  A
C1610      F1611   1.356       .  S
C1615      C1616   1.396       .  A
C1615      C1620   1.388       .  A
C1615      F1622   1.359       .  S
C1616      C1617   1.408       .  A
C1617      C1618   1.405       .  A
C1617      F1624   1.358       .  S
C1618      C1619   1.408       .  A
C1618      F1623   1.358       .  S
C1619      C1620   1.415       .  A
C1620      F1621   1.357       .  S
C1625      C1630   1.407       .  A
C1626      C1627   1.405       .  A
C1627      F1634   1.356       .  S
C1628      C1629   1.411       .  A
C1628      F1633   1.358       .  S
C1629      C1630   1.409       .  A
C1630      F1631   1.357       .  S
C1635      C1636   1.405       .  A
C1635      C1640   1.390       .  A
C1635      F1642   1.358       .  S
C1636      C1637   1.410       .  A
C1637      C1638   1.401       .  A
C1637      F1644   1.358       .  S
C1638      C1639   1.407       .  A
C1638      F1643   1.358       .  S
C1639      C1640   1.406       .  A
C1640      F1641   1.357       .  S
C1645      C1646   1.404       .  A
C1645      C1650   1.398       .  A
C1645      F1652   1.358       .  S
C1646      C1647   1.408       .  A
C1647      C1648   1.395       .  A
C1647      F1654   1.355       .  S
C1648      C1649   1.399       .  A
C1648      F1653   1.358       .  S
C1649      C1650   1.408       .  A
C1650      F1651   1.358       .  S
C1655      C1656   1.407       .  A
C1655      C1660   1.403       .  A
C1656      C1657   1.397       .  A
C1657      C1658   1.395       .  A
C1657      F1664   1.358       .  S
C1658      C1659   1.416       .  A
C1658      F1663   1.358       .  S
C1659      C1660   1.408       .  A
C1660      F1661   1.358       .  S
