geometry optimzed in LAMMPS
_audit_creation_date              2020-12-01 
_audit_creation_method            'lammps2cif' 
_symmetry_space_group_name_H-M    'P1' 
_symmetry_Int_Tables_number       1 
_symmetry_cell_setting            triclinic 
loop_ 
_symmetry_equiv_pos_as_xyz 
  x,y,z 
_cell_length_a                    33.21650293 
_cell_length_b                    33.046656690466754 
_cell_length_c                    36.94457004803532 
_cell_angle_alpha                 89.99689761744546 
_cell_angle_beta                  89.99413018881907 
_cell_angle_gamma                 90.0003045219009 
loop_ 
_atom_site_label 
_atom_site_type_symbol 
_atom_site_fract_x 
_atom_site_fract_y 
_atom_site_fract_z 
_atom_site_charge 
O1          O  0.12092313  0.37380528  0.49217392    -0.80100
C2          C  0.14211373  0.32874563  0.34667394     0.99300
O3          O  0.17031209  0.33506927  0.36881184    -0.69200
O4          O  0.16454525  0.40549358  0.39899303    -0.72800
Al5        Al  0.16978841  0.35278794  0.41815018     1.49000
C6          C  0.14568514  0.43468387  0.41252743     0.94500
O7          O  0.05410959  0.39532815  0.41154322    -0.79000
O8          O  0.07062020  0.28502282  0.45021310    -0.72600
Al9        Al  0.08915031  0.38258711  0.45049555     1.90100
O10         O  0.04189558  0.33281558  0.39461032    -0.71600
O11         O  0.13475749  0.26622294  0.40941021    -0.71500
O12         O  0.10732919  0.31930455  0.35728190    -0.77100
O13         O  0.18251782  0.30093867  0.43603458    -0.75300
O14         O  0.11675661  0.34642554  0.42454140    -1.11500
O15         O  0.18045704  0.37214366  0.46618187    -0.70700
C16         C  0.15875835  0.37451261  0.49413580     1.00100
C17         C  0.03300510  0.36995173  0.39462831     0.96400
Al18       Al  0.09102644  0.30428468  0.40462362     1.55600
O19         O  0.11971891  0.42920434  0.43680417    -0.75300
C20         C  0.16854996  0.26790174  0.42496055     1.00600
C21         C  0.05009218  0.30666763  0.47156708     0.95500
O22         O  0.05194067  0.34473193  0.47028245    -0.80600
O23         O  0.32435598  0.06900401  0.38156679    -0.80100
C24         C  0.36019932  0.18063835  0.49366981     0.99300
O25         O  0.37669844  0.14666819  0.48861793    -0.69200
O26         O  0.32384296  0.08773388  0.48565970    -0.72800
Al27       Al  0.36633898  0.10367333  0.45484155     1.49000
C28         C  0.29315911  0.06844086  0.47554341     0.94500
O29         O  0.25395078  0.14533406  0.42455497    -0.79000
O30         O  0.34918505  0.17765574  0.36893137    -0.72600
Al31       Al  0.29195541  0.10857555  0.40442132     1.90100
O32         O  0.28851495  0.20091591  0.41508707    -0.71600
O33         O  0.40142738  0.18087106  0.42107248    -0.71500
O34         O  0.33992652  0.19745616  0.46910953    -0.77100
O35         O  0.41263171  0.11582058  0.42685536    -0.75300
O36         O  0.33387082  0.13229428  0.42624544    -1.11500
O37         O  0.36312393  0.05431109  0.42781162    -0.70700
C38         C  0.34875902  0.04575291  0.39718441     1.00100
C39         C  0.25574962  0.18329175  0.42212668     0.96400
Al40       Al  0.34376746  0.18481237  0.41914133     1.55600
O41         O  0.27950395  0.07212145  0.44377903    -0.75300
C42         C  0.42453747  0.15072076  0.41855940     1.00600
C43         C  0.32488877  0.16047609  0.34790145     0.95500
O44         O  0.29643670  0.13882267  0.35982807    -0.80600
O45         O  0.12139091  0.67319776  0.02641212    -0.80100
C46         C  0.14247749  0.71800576  0.17202731     0.99300
O47         O  0.17066440  0.71163694  0.14989013    -0.69200
O48         O  0.16459090  0.64121201  0.11976727    -0.72800
Al49       Al  0.17011458  0.69386530  0.10056913     1.49000
C50         C  0.14574197  0.61208443  0.10611441     0.94500
O51         O  0.05439627  0.65159601  0.10691412    -0.79000
O52         O  0.07106556  0.76192789  0.06846327    -0.72600
Al53       Al  0.08951044  0.66435339  0.06803120     1.90100
O54         O  0.04232445  0.71409066  0.12402149    -0.71600
O55         O  0.13528578  0.78051396  0.10922724    -0.71500
O56         O  0.10771616  0.72749641  0.16140053    -0.77100
O57         O  0.18301319  0.74565236  0.08266423    -0.75300
O58         O  0.11712420  0.70040193  0.09409229    -1.11500
O59         O  0.18083812  0.67440834  0.05256570    -0.70700
C60         C  0.15922933  0.67224771  0.02454457     1.00100
C61         C  0.03336888  0.67697207  0.12391058     0.96400
Al62       Al  0.09146627  0.74256758  0.11403463     1.55600
O63         O  0.11997851  0.61764967  0.08168119    -0.75300
C64         C  0.16908754  0.77873244  0.09368892     1.00600
C65         C  0.05052471  0.74034419  0.04707160     0.95500
O66         O  0.05237716  0.70228232  0.04827605    -0.80600
O67         O  0.32471579  0.97762261  0.13712788    -0.80100
C68         C  0.36074663  0.86618572  0.02491846     0.99300
O69         O  0.37715586  0.90019787  0.02997930    -0.69200
O70         O  0.32400144  0.95888876  0.03294847    -0.72800
Al71       Al  0.36660121  0.94317389  0.06373993     1.49000
C72         C  0.29332945  0.97816864  0.04312570     0.94500
O73         O  0.25442964  0.90124761  0.09409615    -0.79000
O74         O  0.34976640  0.86909912  0.14965204    -0.72600
Al75       Al  0.29234413  0.93804439  0.11425100     1.90100
O76         O  0.28911313  0.84572012  0.10351727    -0.71600
O77         O  0.40197289  0.86611940  0.09746079    -0.71500
O78         O  0.34048893  0.84932693  0.04946882    -0.77100
O79         O  0.41291796  0.93123146  0.09172162    -0.75300
O80         O  0.33427494  0.91444392  0.09236741    -1.11500
O81         O  0.36319700  0.99255589  0.09074459    -0.70700
C82         C  0.34894462  0.00100579  0.12144327     1.00100
C83         C  0.25631406  0.86329302  0.09649106     0.96400
Al84       Al  0.34432947  0.86196150  0.09943887     1.55600
O85         O  0.27978962  0.97453007  0.07493850    -0.75300
C86         C  0.42495478  0.89637085  0.09999026     1.00600
C87         C  0.32540521  0.88616935  0.17069673     0.95500
O88         O  0.29688670  0.90773727  0.15879168    -0.80600
O89         O  0.69549310  0.06952190  0.13699250    -0.80100
C90         C  0.65956784  0.18104735  0.02484412     0.99300
O91         O  0.64311718  0.14705156  0.02989205    -0.69200
O92         O  0.69623263  0.08831525  0.03282641    -0.72800
Al93       Al  0.65363724  0.10404404  0.06363061     1.49000
C94         C  0.72690741  0.06903311  0.04299423     0.94500
O95         O  0.76581834  0.14589863  0.09401627    -0.79000
O96         O  0.67047350  0.17806380  0.14957017    -0.72600
Al97       Al  0.72788264  0.10910554  0.11414487     1.90100
O98         O  0.73115975  0.20143435  0.10346348    -0.71600
O99         O  0.61829625  0.18110499  0.09736057    -0.71500
O100        O  0.67983142  0.19787487  0.04940033    -0.77100
O101        O  0.60733035  0.11599759  0.09163095    -0.75300
O102        O  0.68597311  0.13273834  0.09226908    -1.11500
O103        O  0.65700786  0.05464165  0.09060773    -0.70700
C104        C  0.67125782  0.04616143  0.12129800     1.00100
C105        C  0.76395051  0.18385056  0.09643014     0.96400
Al106      Al  0.67594367  0.18522323  0.09935964     1.55600
O107        O  0.74044131  0.07265315  0.07480857    -0.75300
C108        C  0.59530880  0.15085918  0.09991336     1.00600
C109        C  0.69481889  0.16097295  0.17061453     0.95500
O110        O  0.72332252  0.13938148  0.15870614    -0.80600
O111        O  0.89901300  0.37388768  0.02643131    -0.80100
C112        C  0.87775724  0.32906224  0.17202617     0.99300
O113        O  0.84959305  0.33545963  0.14987620    -0.69200
O114        O  0.85571651  0.40588678  0.11975201    -0.72800
Al115      Al  0.85019808  0.35323508  0.10055559     1.49000
C116        C  0.87458406  0.43500578  0.10609913     0.94500
O117        O  0.96592859  0.39544730  0.10699140    -0.79000
O118        O  0.94924332  0.28512863  0.06852268    -0.72600
Al119      Al  0.93085109  0.38271082  0.06807983     1.90100
O120        O  0.97796687  0.33294634  0.12410228    -0.71600
O121        O  0.88498379  0.26656948  0.10923691    -0.71500
O122        O  0.91252185  0.31955247  0.16142162    -0.77100
O123        O  0.83729817  0.30145776  0.08264535    -0.75300
O124        O  0.90319301  0.34667308  0.09411925    -1.11500
O125        O  0.83953571  0.37270375  0.05254079    -0.70700
C126        C  0.86117662  0.37487080  0.02453494     1.00100
C127        C  0.98693602  0.37006395  0.12399936     0.96400
Al128      Al  0.92881337  0.30449002  0.11407630     1.55600
O129        O  0.90038750  0.42942503  0.08169951    -0.75300
C130        C  0.85120056  0.26837059  0.09367587     1.00600
C131        C  0.96981345  0.30671034  0.04714972     0.95500
O132        O  0.96798459  0.34477133  0.04835941    -0.80600
O133        O  0.89931331  0.67344095  0.49202331    -0.80100
C134        C  0.87826902  0.71847652  0.34648512     0.99300
O135        O  0.85005762  0.71215137  0.36861236    -0.69200
O136        O  0.85582315  0.64172558  0.39878868    -0.72800
Al137      Al  0.85054071  0.69442746  0.41794918     1.49000
C138        C  0.87465541  0.61253658  0.41235620     0.94500
O139        O  0.96619279  0.65184903  0.41145313    -0.79000
O140        O  0.94975318  0.76216258  0.45008455    -0.72600
Al141      Al  0.93112531  0.66462099  0.45037326     1.90100
O142        O  0.97844056  0.71434545  0.39447342    -0.71600
O143        O  0.88561723  0.78099988  0.40927743    -0.71500
O144        O  0.91304266  0.72792676  0.35711403    -0.77100
O145        O  0.83778991  0.74627571  0.43581773    -0.75300
O146        O  0.90356607  0.70078960  0.42438557    -1.11500
O147        O  0.83981272  0.67506104  0.46597901    -0.70700
C148        C  0.86147646  0.67270910  0.49395430     1.00100
C149        C  0.98731674  0.67720509  0.39452867     0.96400
Al150      Al  0.92933343  0.74291883  0.40447988     1.55600
O151        O  0.90055341  0.61801682  0.43668416    -0.75300
C152        C  0.85179568  0.77931799  0.42478608     1.00600
C153        C  0.97024359  0.74049515  0.47145207     0.95500
O154        O  0.96834434  0.70243735  0.47017138    -0.80600
O155        O  0.69599256  0.97822914  0.38141721    -0.80100
C156        C  0.66012659  0.86655885  0.49352984     0.99300
O157        O  0.64364539  0.90053806  0.48848018    -0.69200
O158        O  0.69652555  0.95944843  0.48551689    -0.72800
Al159      Al  0.65402545  0.94354097  0.45470708     1.49000
C160        C  0.72719100  0.97876979  0.47539437     0.94500
O161        O  0.76640366  0.90189006  0.42438139    -0.79000
O162        O  0.67117496  0.86956821  0.36878302    -0.72600
Al163      Al  0.72839724  0.93865192  0.40426255     1.90100
O164        O  0.73183616  0.84630495  0.41493852    -0.71600
O165        O  0.61892032  0.86636708  0.42093079    -0.71500
O166        O  0.68040763  0.84974748  0.46896803    -0.77100
O167        O  0.60773503  0.93142037  0.42673279    -0.75300
O168        O  0.68648453  0.91492463  0.42609732    -1.11500
O169        O  0.65725098  0.99291468  0.42768665    -0.70700
C170        C  0.67160147  0.00148085  0.39705223     1.00100
C171        C  0.76460353  0.86393179  0.42196124     0.96400
Al172      Al  0.67658166  0.86240877  0.41899494     1.55600
O173        O  0.74084691  0.97510462  0.44362501    -0.75300
C174        C  0.59581603  0.89652579  0.41844405     1.00600
C175        C  0.69547238  0.88674645  0.34774696     0.95500
O176        O  0.72391533  0.90841207  0.35966683    -0.80600
O177        O  0.39895595  0.17317693  0.24218273    -0.80100
C178        C  0.37769740  0.21804786  0.09661501     0.99300
O179        O  0.34952732  0.21169130  0.11877541    -0.69200
O180        O  0.35562251  0.14124042  0.14887576    -0.72800
Al181      Al  0.35013560  0.19389022  0.16809215     1.49000
C182        C  0.37450956  0.11211072  0.16248816     0.94500
O183        O  0.46587629  0.15165597  0.16160418    -0.79000
O184        O  0.44917331  0.26196706  0.20009550    -0.72600
Al185      Al  0.43079234  0.16437592  0.20052527     1.90100
O186        O  0.47791678  0.21416592  0.14452802    -0.71600
O187        O  0.38493228  0.28052715  0.15936737    -0.71500
O188        O  0.41247504  0.22751967  0.10720710    -0.77100
O189        O  0.33727438  0.24566903  0.18603502    -0.75300
O190        O  0.40313513  0.20042485  0.17450643    -1.11500
O191        O  0.33947417  0.17440812  0.21609707    -0.70700
C192        C  0.36111999  0.17222945  0.24409271     1.00100
C193        C  0.48688992  0.17705241  0.14461457     0.96400
Al194      Al  0.42875870  0.24260359  0.15454419     1.55600
O195        O  0.40032612  0.11767136  0.18687747    -0.75300
C196        C  0.35116805  0.27874581  0.17496753     1.00600
C197        C  0.46974630  0.24038777  0.22146541     0.95500
O198        O  0.46792065  0.20232329  0.22025781    -0.80600
O199        O  0.19558829  0.47764516  0.13153891    -0.80100
C200        C  0.15960767  0.36620943  0.24375109     0.99300
O201        O  0.14318304  0.40021819  0.23870397    -0.69200
O202        O  0.19628600  0.45895889  0.23570724    -0.72800
Al203      Al  0.15368700  0.44319363  0.20492707     1.49000
C204        C  0.22698034  0.47820587  0.22553000     0.94500
O205        O  0.26585461  0.40126463  0.17457911    -0.79000
O206        O  0.17049948  0.36912859  0.11902582    -0.72600
Al207      Al  0.22794943  0.43806308  0.15441525     1.90100
O208        O  0.23117368  0.34574561  0.16512778    -0.71600
O209        O  0.11832593  0.36611111  0.17123673    -0.71500
O210        O  0.17984325  0.34935224  0.21918957    -0.77100
O211        O  0.10735790  0.43121561  0.17695993    -0.75300
O212        O  0.18601683  0.41446811  0.17630213    -1.11500
O213        O  0.15705782  0.49255737  0.17789569    -0.70700
C214        C  0.17132737  0.50100918  0.14720311     1.00100
C215        C  0.26396773  0.36331279  0.17217431     0.96400
Al216      Al  0.17596608  0.36198292  0.16923208     1.55600
O217        O  0.24052107  0.47454664  0.19372050    -0.75300
C218        C  0.09533520  0.39635106  0.16868805     1.00600
C219        C  0.19486125  0.38618861  0.09797403     0.95500
O220        O  0.22339003  0.40775081  0.10987225    -0.80600
O221        O  0.82435798  0.47821718  0.38702048    -0.80100
C222        C  0.86023589  0.36651515  0.27495841     0.99300
O223        O  0.87672093  0.40049499  0.27999455    -0.69200
O224        O  0.82385965  0.45942883  0.28294166    -0.72800
Al225      Al  0.86635685  0.44350317  0.31375887     1.49000
C226        C  0.79315913  0.47870607  0.29304727     0.94500
O227        O  0.75398453  0.40182423  0.34409820    -0.79000
O228        O  0.84923256  0.36954715  0.39969566    -0.72600
Al229      Al  0.79197686  0.43860851  0.36419807     1.90100
O230        O  0.78855917  0.34625245  0.35356665    -0.71600
O231        O  0.90146365  0.36632055  0.34753308    -0.71500
O232        O  0.83996054  0.34970573  0.29952569    -0.77100
O233        O  0.91265064  0.43137262  0.34174018    -0.75300
O234        O  0.83389563  0.41488828  0.34237158    -1.11500
O235        O  0.86313830  0.49287622  0.34077004    -0.70700
C236        C  0.84876115  0.50146014  0.37138875     1.00100
C237        C  0.75579241  0.36386833  0.34652454     0.96400
Al238      Al  0.84380569  0.36237153  0.34948880     1.55600
O239        O  0.77949794  0.47503016  0.32481462    -0.75300
C240        C  0.92456692  0.39647653  0.35003444     1.00600
C241        C  0.82494335  0.38673263  0.42073292     0.95500
O242        O  0.79649191  0.40839081  0.40881221    -0.80600
O243        O  0.62092263  0.17343909  0.27642343    -0.80100
C244        C  0.64207158  0.21850752  0.42192183     0.99300
O245        O  0.67027284  0.21216274  0.39978782    -0.69200
O246        O  0.66447057  0.14172649  0.36964155    -0.72800
Al247      Al  0.66975864  0.19441535  0.35045885     1.49000
C248        C  0.64563070  0.11253930  0.35608319     0.94500
O249        O  0.55408983  0.15189361  0.35704435    -0.79000
O250        O  0.57059570  0.26219199  0.31835195    -0.72600
Al251      Al  0.58913825  0.16463768  0.31809437     1.90100
O252        O  0.54187004  0.21440975  0.37397659    -0.71600
O253        O  0.63474618  0.28099531  0.35914846    -0.71500
O254        O  0.60729297  0.22795278  0.41130623    -0.77100
O255        O  0.68251899  0.24624791  0.33255973    -0.75300
O256        O  0.61673355  0.20079779  0.34405178    -1.11500
O257        O  0.68044474  0.17502415  0.30243085    -0.70700
C258        C  0.65875755  0.17268832  0.27446915     1.00100
C259        C  0.53297965  0.17727157  0.37395711     0.96400
Al260      Al  0.59100162  0.24294691  0.36395266     1.55600
O261        O  0.61970790  0.11802267  0.33177538    -0.75300
C262        C  0.66855596  0.27929346  0.34362153     1.00600
C263        C  0.55006436  0.24053248  0.29701413     0.95500
O264        O  0.55192399  0.20247227  0.29831222    -0.80600
O265        O  0.62139460  0.87396528  0.24207392    -0.80100
C266        C  0.64258483  0.82910599  0.09648112     0.99300
O267        O  0.67075739  0.83547324  0.11862867    -0.69200
O268        O  0.66465526  0.90591617  0.14872780    -0.72800
Al269      Al  0.67016621  0.85326512  0.16794430     1.49000
C270        C  0.64577102  0.93504148  0.16235138     0.94500
O271        O  0.55443439  0.89551690  0.16154675    -0.79000
O272        O  0.57108803  0.78520470  0.20001523    -0.72600
Al273      Al  0.58953525  0.88278132  0.20043880     1.90100
O274        O  0.54238563  0.83302125  0.14443711    -0.71600
O275        O  0.63533590  0.76662022  0.15928661    -0.71500
O276        O  0.60781542  0.81961776  0.10709431    -0.77100
O277        O  0.68304318  0.80148250  0.18587257    -0.75300
O278        O  0.61716876  0.84672830  0.17439760    -1.11500
O279        O  0.68085798  0.87274306  0.21594415    -0.70700
C280        C  0.65923146  0.87492199  0.24395620     1.00100
C281        C  0.53341556  0.87013578  0.14455220     0.96400
Al282      Al  0.59152509  0.80455617  0.15445143     1.55600
O283        O  0.61999342  0.92947884  0.18677626    -0.75300
C284        C  0.66911996  0.76840245  0.17484613     1.00600
C285        C  0.55054310  0.80679949  0.22139802     0.95500
O286        O  0.55240763  0.84485861  0.22019274    -0.80600
O287        O  0.82467309  0.56946904  0.13139411    -0.80100
C288        C  0.86070374  0.68095562  0.24357100     0.99300
O289        O  0.87709300  0.64692966  0.23852944    -0.69200
O290        O  0.82396120  0.58821636  0.23556296    -0.72800
Al291      Al  0.86656217  0.60394754  0.20477058     1.49000
C292        C  0.79328897  0.56893371  0.22539715     0.94500
O293        O  0.75440426  0.64586703  0.17441273    -0.79000
O294        O  0.84973924  0.67800435  0.11883459    -0.72600
Al295      Al  0.79230945  0.60906050  0.15426137     1.90100
O296        O  0.78909387  0.70138968  0.16497519    -0.71600
O297        O  0.90194018  0.68099853  0.17102140    -0.71500
O298        O  0.84045930  0.69780741  0.21901261    -0.77100
O299        O  0.91288634  0.61589307  0.17679671    -0.75300
O300        O  0.83424156  0.63266752  0.17613565    -1.11500
O301        O  0.86318057  0.55457379  0.17776428    -0.70700
C302        C  0.84892554  0.54610997  0.14707317     1.00100
C303        C  0.75629759  0.68382034  0.17201871     0.96400
Al304      Al  0.84430112  0.68515057  0.16904825     1.55600
O305        O  0.77974114  0.57257978  0.19358873    -0.75300
C306        C  0.92492302  0.65074758  0.16851019     1.00600
C307        C  0.82537510  0.66094228  0.09779192     0.95500
O308        O  0.79686574  0.63935791  0.10970305    -0.80600
O309        O  0.39936011  0.87384629  0.27645333    -0.80100
C310        C  0.37829233  0.82876665  0.42197120     0.99300
O311        O  0.35007882  0.83509249  0.39984958    -0.69200
O312        O  0.35585914  0.90553171  0.36970167    -0.72800
Al313      Al  0.35056789  0.85284908  0.35051815     1.49000
C314        C  0.37468985  0.93472602  0.35613930     0.94500
O315        O  0.46622743  0.89540213  0.35702840    -0.79000
O316        O  0.44972047  0.78510402  0.31835049    -0.72600
Al317      Al  0.43116426  0.88265288  0.31810047     1.90100
O318        O  0.47846294  0.83288532  0.37395386    -0.71600
O319        O  0.38559821  0.76627611  0.35918276    -0.71500
O320        O  0.41306929  0.81933351  0.41133415    -0.77100
O321        O  0.33781089  0.80101767  0.33261702    -0.75300
O322        O  0.40358964  0.84648327  0.34407677    -1.11500
O323        O  0.33985399  0.87224330  0.30250193    -0.70700
C324        C  0.36152388  0.87457280  0.27452602     1.00100
C325        C  0.48734479  0.87002434  0.37393158     0.96400
Al326      Al  0.42933708  0.80434011  0.36396410     1.55600
O327        O  0.40059038  0.92925829  0.33180469    -0.75300
C328        C  0.35178783  0.76797033  0.34366046     1.00600
C329        C  0.47023825  0.80676145  0.29699446     0.95500
O330        O  0.46837980  0.84482342  0.29829074    -0.80600
O331        O  0.19608781  0.56899175  0.38712014    -0.80100
C332        C  0.16007592  0.68059011  0.27498215     0.99300
O333        O  0.14364722  0.64658755  0.28004519    -0.69200
O334        O  0.19655299  0.58770725  0.28302543    -0.72800
Al335      Al  0.15405193  0.60361928  0.31384015     1.49000
C336        C  0.22725294  0.56843764  0.29313423     0.94500
O337        O  0.26641664  0.64538569  0.34409694    -0.79000
O338        O  0.17118366  0.67764544  0.39972751    -0.72600
Al339      Al  0.22844785  0.60859492  0.36424470     1.90100
O340        O  0.23180563  0.70094506  0.35353024    -0.71600
O341        O  0.11891041  0.68079421  0.34760665    -0.71500
O342        O  0.18034594  0.69743663  0.29952961    -0.77100
O343        O  0.10774765  0.61573759  0.34181249    -0.75300
O344        O  0.18650285  0.63227709  0.34242147    -1.11500
O345        O  0.15730558  0.55427317  0.34089362    -0.70700
C346        C  0.17168434  0.54572710  0.37151885     1.00100
C347        C  0.26458668  0.68334387  0.34650328     0.96400
Al348      Al  0.17656247  0.68479087  0.34951016     1.55600
O349        O  0.24092255  0.57213846  0.32489208    -0.75300
C350        C  0.09581340  0.65063149  0.35008942     1.00600
C351        C  0.19549852  0.66048923  0.42075688     0.95500
O352        O  0.22395636  0.63884637  0.40883063    -0.80600
C353        C  0.32670348  0.73262018  0.34120843    -0.11500
C354        C  0.30027118  0.70755307  0.34224350    -0.13100
C355        C  0.69423428  0.73310526  0.17734829    -0.11500
C356        C  0.72065946  0.70805079  0.17630760    -0.13100
C357        C  0.52312887  0.78964903  0.24747211    -0.11500
C358        C  0.49761995  0.78966087  0.27086512    -0.13100
C359        C  0.72010071  0.33968026  0.34225517    -0.11500
C360        C  0.69365753  0.31462963  0.34119344    -0.13100
C361        C  0.77783010  0.53814121  0.24906673    -0.11500
C362        C  0.77778451  0.50951631  0.26935452    -0.13100
C363        C  0.24260267  0.53760112  0.26946330    -0.11500
C364        C  0.24249532  0.50896964  0.24918958    -0.13100
C365        C  0.29961000  0.33908404  0.17644705    -0.11500
C366        C  0.32604156  0.31403498  0.17747348    -0.13100
C367        C  0.49714909  0.25757473  0.24752113    -0.11500
C368        C  0.52266547  0.25761925  0.27090063    -0.13100
C369        C  0.66125710  0.03930410  0.38058011    -0.11500
C370        C  0.65380684  0.07234642  0.36859220    -0.13100
C371        C  0.64990031  0.83562939  0.05863554    -0.11500
C372        C  0.65533162  0.84719958  0.02805877    -0.13100
C373        C  0.68926710  0.88241475  0.30956415    -0.11500
C374        C  0.67785278  0.87894176  0.27877128    -0.13100
C375        C  0.55558924  0.89065797  0.40530290    -0.11500
C376        C  0.52334416  0.88291401  0.39202783    -0.13100
C377        C  0.02332156  0.66428415  0.37645340    -0.11500
C378        C  0.05557478  0.65650358  0.36320611    -0.13100
C379        C  0.82673336  0.81468161  0.42723838    -0.11500
C380        C  0.80030404  0.83974952  0.42620667    -0.13100
C381        C  0.83155849  0.66530983  0.05961104    -0.11500
C382        C  0.84290472  0.66875773  0.02879561    -0.13100
C383        C  0.86555659  0.70032837  0.27808080    -0.11500
C384        C  0.87099089  0.71193200  0.30864257    -0.13100
C385        C  0.85908611  0.53929503  0.38784702    -0.11500
C386        C  0.86650565  0.57234387  0.39983400    -0.13100
C387        C  0.02290729  0.38291967  0.14214264    -0.11500
C388        C  0.05512725  0.39060623  0.15548169    -0.13100
C389        C  0.84257292  0.37891445  0.48971156    -0.11500
C390        C  0.83116162  0.38240479  0.45891740    -0.13100
C391        C  0.87044272  0.33557763  0.20986653    -0.11500
C392        C  0.86502073  0.34714985  0.24043926    -0.13100
C393        C  0.85920160  0.50828213  0.13058977    -0.11500
C394        C  0.86656322  0.47522766  0.11859527    -0.13100
C395        C  0.74250639  0.00962586  0.49905963    -0.11500
C396        C  0.74239700  0.03826552  0.01932376    -0.13100
C397        C  0.65372679  0.97525236  0.14978739    -0.11500
C398        C  0.66101618  0.00831193  0.13776408    -0.13100
C399        C  0.82606289  0.23308912  0.09116616    -0.11500
C400        C  0.79961211  0.20805872  0.09217990    -0.13100
C401        C  0.64936025  0.21199402  0.45976065    -0.11500
C402        C  0.65476579  0.20041111  0.49032973    -0.13100
C403        C  0.67729911  0.16874253  0.23961617    -0.11500
C404        C  0.68862704  0.16531558  0.20879466    -0.13100
C405        C  0.52287274  0.16422480  0.12647342    -0.11500
C406        C  0.55510261  0.15658476  0.11313043    -0.13100
C407        C  0.36650892  0.07189816  0.14994917    -0.11500
C408        C  0.35918594  0.03884444  0.13792998    -0.13100
C409        C  0.36558693  0.84684361  0.49039345    -0.11500
C410        C  0.37101232  0.83527776  0.45981850    -0.13100
C411        C  0.34295709  0.87846971  0.23968718    -0.11500
C412        C  0.33160613  0.88184998  0.20887280    -0.13100
C413        C  0.46517778  0.89064692  0.11315437    -0.11500
C414        C  0.49742335  0.88298504  0.12644845    -0.13100
C415        C  0.99763582  0.75756565  0.49758721    -0.11500
C416        C  0.02313286  0.75751871  0.02098914    -0.13100
C417        C  0.96514490  0.65646159  0.15533808    -0.11500
C418        C  0.99738578  0.66411473  0.14202748    -0.13100
C419        C  0.19421801  0.81402700  0.09119967    -0.11500
C420        C  0.22066165  0.83906787  0.09222721    -0.13100
C421        C  0.18929322  0.66481065  0.45894029    -0.11500
C422        C  0.17787194  0.66825893  0.48973437    -0.13100
C423        C  0.15523220  0.69993476  0.24045282    -0.11500
C424        C  0.14977533  0.71149100  0.20987621    -0.13100
C425        C  0.16106319  0.53882908  0.13069523    -0.11500
C426        C  0.15373057  0.57187220  0.11865792    -0.13100
C427        C  0.35909902  0.00793943  0.38069676    -0.11500
C428        C  0.36653329  0.97490811  0.36868034    -0.13100
C429        C  0.27786284  0.00895917  0.01947095    -0.11500
C430        C  0.27780266  0.03760390  0.49921137    -0.13100
C431        C  0.36496216  0.19998173  0.02819974    -0.11500
C432        C  0.37037313  0.21153803  0.05877746    -0.13100
C433        C  0.34251907  0.16823163  0.27892102    -0.11500
C434        C  0.33110608  0.16478626  0.30971832    -0.13100
C435        C  0.49698326  0.16437812  0.39207261    -0.11500
C436        C  0.46475192  0.15660974  0.40537591    -0.13100
C437        C  0.99701490  0.38284217  0.37650874    -0.11500
C438        C  0.96478404  0.39060006  0.36320641    -0.13100
C439        C  0.99721097  0.28953920  0.02107964    -0.11500
C440        C  0.02271421  0.28954772  0.49768526    -0.13100
C441        C  0.22005126  0.20747669  0.42637870    -0.11500
C442        C  0.19362328  0.23254606  0.42741174    -0.13100
C443        C  0.17729619  0.37843822  0.02898742    -0.11500
C444        C  0.18865122  0.38185126  0.05979904    -0.13100
C445        C  0.14941063  0.33527385  0.30883937    -0.11500
C446        C  0.15480953  0.34685983  0.27827070    -0.13100
C447        C  0.16134767  0.50791330  0.38802035    -0.11500
C448        C  0.15388407  0.47487639  0.40001927    -0.13100
O449        O  0.12092322  0.37380528  0.99217387    -0.80100
C450        C  0.14211376  0.32874559  0.84667396     0.99300
O451        O  0.17031210  0.33506928  0.86881183    -0.69200
O452        O  0.16454543  0.40549359  0.89899308    -0.72800
Al453      Al  0.16978844  0.35278794  0.91815015     1.49000
C454        C  0.14568521  0.43468388  0.91252738     0.94500
O455        O  0.05410958  0.39532815  0.91154322    -0.79000
O456        O  0.07062033  0.28502281  0.95021317    -0.72600
Al457      Al  0.08915033  0.38258712  0.95049552     1.90100
O458        O  0.04189553  0.33281560  0.89461029    -0.71600
O459        O  0.13475744  0.26622291  0.90941033    -0.71500
O460        O  0.10732920  0.31930453  0.85728194    -0.77100
O461        O  0.18251785  0.30093869  0.93603450    -0.75300
O462        O  0.11675661  0.34642558  0.92454137    -1.11500
O463        O  0.18045713  0.37214364  0.96618183    -0.70700
C464        C  0.15875844  0.37451259  0.99413577     1.00100
C465        C  0.03300509  0.36995177  0.89462827     0.96400
Al466      Al  0.09102644  0.30428467  0.90462366     1.55600
O467        O  0.11971887  0.42920433  0.93680405    -0.75300
C468        C  0.16854994  0.26790174  0.92496061     1.00600
C469        C  0.05009221  0.30666763  0.97156702     0.95500
O470        O  0.05194073  0.34473193  0.97028240    -0.80600
O471        O  0.32435593  0.06900402  0.88156680    -0.80100
C472        C  0.36019927  0.18063834  0.99366979     0.99300
O473        O  0.37669840  0.14666819  0.98861789    -0.69200
O474        O  0.32384298  0.08773382  0.98565970    -0.72800
Al475      Al  0.36633896  0.10367331  0.95484156     1.49000
C476        C  0.29315911  0.06844084  0.97554342     0.94500
O477        O  0.25395074  0.14533405  0.92455510    -0.79000
O478        O  0.34918503  0.17765577  0.86893140    -0.72600
Al479      Al  0.29195540  0.10857554  0.90442137     1.90100
O480        O  0.28851489  0.20091589  0.91508713    -0.71600
O481        O  0.40142733  0.18087106  0.92107255    -0.71500
O482        O  0.33992647  0.19745617  0.96910951    -0.77100
O483        O  0.41263167  0.11582058  0.92685542    -0.75300
O484        O  0.33387081  0.13229427  0.92624546    -1.11500
O485        O  0.36312385  0.05431105  0.92781164    -0.70700
C486        C  0.34875895  0.04575289  0.89718442     1.00100
C487        C  0.25574956  0.18329174  0.92212676     0.96400
Al488      Al  0.34376742  0.18481237  0.91914136     1.55600
O489        O  0.27950393  0.07212145  0.94377905    -0.75300
C490        C  0.42453742  0.15072076  0.91855946     1.00600
C491        C  0.32488877  0.16047610  0.84790150     0.95500
O492        O  0.29643674  0.13882263  0.85982814    -0.80600
O493        O  0.12139090  0.67319793  0.52641218    -0.80100
C494        C  0.14247743  0.71800574  0.67202737     0.99300
O495        O  0.17066435  0.71163692  0.64989021    -0.69200
O496        O  0.16459081  0.64121198  0.61976740    -0.72800
Al497      Al  0.17011457  0.69386528  0.60056921     1.49000
C498        C  0.14574191  0.61208441  0.60611450     0.94500
O499        O  0.05439627  0.65159608  0.60691426    -0.79000
O500        O  0.07106551  0.76192791  0.56846337    -0.72600
Al501      Al  0.08951043  0.66435345  0.56803131     1.90100
O502        O  0.04232439  0.71409073  0.62402160    -0.71600
O503        O  0.13528581  0.78051394  0.60922716    -0.71500
O504        O  0.10771612  0.72749640  0.66140055    -0.77100
O505        O  0.18301334  0.74565232  0.58266433    -0.75300
O506        O  0.11712418  0.70040198  0.59409235    -1.11500
O507        O  0.18083812  0.67440831  0.55256571    -0.70700
C508        C  0.15922932  0.67224776  0.52454457     1.00100
C509        C  0.03336884  0.67697213  0.62391071     0.96400
Al510      Al  0.09146625  0.74256762  0.61403468     1.55600
O511        O  0.11997848  0.61764969  0.58168127    -0.75300
C512        C  0.16908758  0.77873242  0.59368884     1.00600
C513        C  0.05052472  0.74034418  0.54707165     0.95500
O514        O  0.05237715  0.70228232  0.54827616    -0.80600
O515        O  0.32471589  0.97762255  0.63712788    -0.80100
C516        C  0.36074666  0.86618572  0.52491844     0.99300
O517        O  0.37715597  0.90019784  0.52997924    -0.69200
O518        O  0.32400143  0.95888872  0.53294853    -0.72800
Al519      Al  0.36660124  0.94317389  0.56373986     1.49000
C520        C  0.29332946  0.97816863  0.54312576     0.94500
O521        O  0.25442962  0.90124759  0.59409613    -0.79000
O522        O  0.34976640  0.86909916  0.64965200    -0.72600
Al523      Al  0.29234413  0.93804438  0.61425101     1.90100
O524        O  0.28911317  0.84572014  0.60351733    -0.71600
O525        O  0.40197295  0.86611939  0.59746067    -0.71500
O526        O  0.34048894  0.84932699  0.54946882    -0.77100
O527        O  0.41291801  0.93123146  0.59172152    -0.75300
O528        O  0.33427495  0.91444392  0.59236736    -1.11500
O529        O  0.36319698  0.99255592  0.59074452    -0.70700
C530        C  0.34894469  0.00100576  0.62144326     1.00100
C531        C  0.25631407  0.86329301  0.59649115     0.96400
Al532      Al  0.34432950  0.86196152  0.59943883     1.55600
O533        O  0.27978957  0.97453010  0.57493856    -0.75300
C534        C  0.42495486  0.89637084  0.59999015     1.00600
C535        C  0.32540517  0.88616933  0.67069673     0.95500
O536        O  0.29688666  0.90773725  0.65879171    -0.80600
O537        O  0.69549307  0.06952190  0.63699257    -0.80100
C538        C  0.65956781  0.18104735  0.52484413     0.99300
O539        O  0.64311711  0.14705159  0.52989211    -0.69200
O540        O  0.69623261  0.08831525  0.53282653    -0.72800
Al541      Al  0.65363725  0.10404405  0.56363067     1.49000
C542        C  0.72690741  0.06903313  0.54299431     0.94500
O543        O  0.76581831  0.14589869  0.59401620    -0.79000
O544        O  0.67047353  0.17806381  0.64957025    -0.72600
Al545      Al  0.72788269  0.10910555  0.61414491     1.90100
O546        O  0.73115980  0.20143442  0.60346358    -0.71600
O547        O  0.61829626  0.18110496  0.59736073    -0.71500
O548        O  0.67983138  0.19787488  0.54940037    -0.77100
O549        O  0.60733029  0.11599758  0.59163092    -0.75300
O550        O  0.68597312  0.13273833  0.59226917    -1.11500
O551        O  0.65700798  0.05464162  0.59060770    -0.70700
C552        C  0.67125783  0.04616142  0.62129801     1.00100
C553        C  0.76395051  0.18385061  0.59643014     0.96400
Al554      Al  0.67594369  0.18522323  0.59935974     1.55600
O555        O  0.74044140  0.07265317  0.57480861    -0.75300
C556        C  0.59530876  0.15085917  0.59991340     1.00600
C557        C  0.69481892  0.16097296  0.67061458     0.95500
O558        O  0.72332256  0.13938149  0.65870617    -0.80600
O559        O  0.89901312  0.37388766  0.52643137    -0.80100
C560        C  0.87775718  0.32906222  0.67202608     0.99300
O561        O  0.84959297  0.33545958  0.64987614    -0.69200
O562        O  0.85571647  0.40588678  0.61975209    -0.72800
Al563      Al  0.85019808  0.35323507  0.60055560     1.49000
C564        C  0.87458405  0.43500576  0.60609919     0.94500
O565        O  0.96592850  0.39544740  0.60699146    -0.79000
O566        O  0.94924327  0.28512861  0.56852273    -0.72600
Al567      Al  0.93085110  0.38271085  0.56807989     1.90100
O568        O  0.97796682  0.33294639  0.62410216    -0.71600
O569        O  0.88498378  0.26656946  0.60923700    -0.71500
O570        O  0.91252179  0.31955248  0.66142154    -0.77100
O571        O  0.83729833  0.30145775  0.58264522    -0.75300
O572        O  0.90319299  0.34667310  0.59411929    -1.11500
O573        O  0.83953585  0.37270378  0.55254088    -0.70700
C574        C  0.86117675  0.37487080  0.52453501     1.00100
C575        C  0.98693598  0.37006400  0.62399929     0.96400
Al576      Al  0.92881332  0.30449003  0.61407629     1.55600
O577        O  0.90038754  0.42942500  0.58169963    -0.75300
C578        C  0.85120063  0.26837057  0.59367583     1.00600
C579        C  0.96981349  0.30671033  0.54714984     0.95500
O580        O  0.96798459  0.34477132  0.54835950    -0.80600
O581        O  0.89931334  0.67344096  0.99202340    -0.80100
C582        C  0.87826904  0.71847651  0.84648504     0.99300
O583        O  0.85005763  0.71215137  0.86861228    -0.69200
O584        O  0.85582330  0.64172555  0.89878858    -0.72800
Al585      Al  0.85054077  0.69442744  0.91794910     1.49000
C586        C  0.87465552  0.61253658  0.91235619     0.94500
O587        O  0.96619286  0.65184901  0.91145310    -0.79000
O588        O  0.94975314  0.76216255  0.95008457    -0.72600
Al589      Al  0.93112535  0.66462100  0.95037324     1.90100
O590        O  0.97844056  0.71434542  0.89447330    -0.71600
O591        O  0.88561735  0.78099993  0.90927733    -0.71500
O592        O  0.91304269  0.72792676  0.85711393    -0.77100
O593        O  0.83779006  0.74627570  0.93581762    -0.75300
O594        O  0.90356611  0.70078959  0.92438549    -1.11500
O595        O  0.83981279  0.67506104  0.96597902    -0.70700
C596        C  0.86147649  0.67270911  0.99395434     1.00100
C597        C  0.98731675  0.67720506  0.89452856     0.96400
Al598      Al  0.92933348  0.74291883  0.90447981     1.55600
O599        O  0.90055345  0.61801686  0.93668422    -0.75300
C600        C  0.85179582  0.77931801  0.92478601     1.00600
C601        C  0.97024361  0.74049514  0.97145207     0.95500
O602        O  0.96834447  0.70243734  0.97017129    -0.80600
O603        O  0.69599254  0.97822911  0.88141727    -0.80100
C604        C  0.66012664  0.86655887  0.99352988     0.99300
O605        O  0.64364535  0.90053802  0.98848011    -0.69200
O606        O  0.69652557  0.95944848  0.98551690    -0.72800
Al607      Al  0.65402544  0.94354097  0.95470706     1.49000
C608        C  0.72719106  0.97876977  0.97539434     0.94500
O609        O  0.76640364  0.90189004  0.92438129    -0.79000
O610        O  0.67117503  0.86956815  0.86878296    -0.72600
Al611      Al  0.72839721  0.93865191  0.90426253     1.90100
O612        O  0.73183611  0.84630492  0.91493858    -0.71600
O613        O  0.61892038  0.86636710  0.92093070    -0.71500
O614        O  0.68040775  0.84974750  0.96896811    -0.77100
O615        O  0.60773502  0.93142037  0.92673271    -0.75300
O616        O  0.68648455  0.91492461  0.92609733    -1.11500
O617        O  0.65725097  0.99291471  0.92768667    -0.70700
C618        C  0.67160147  0.00148084  0.89705225     1.00100
C619        C  0.76460350  0.86393177  0.92196117     0.96400
Al620      Al  0.67658171  0.86240875  0.91899494     1.55600
O621        O  0.74084689  0.97510459  0.94362497    -0.75300
C622        C  0.59581602  0.89652577  0.91844407     1.00600
C623        C  0.69547239  0.88674647  0.84774689     0.95500
O624        O  0.72391530  0.90841213  0.85966675    -0.80600
O625        O  0.39895596  0.17317693  0.74218266    -0.80100
C626        C  0.37769743  0.21804783  0.59661498     0.99300
O627        O  0.34952733  0.21169131  0.61877538    -0.69200
O628        O  0.35562250  0.14124042  0.64887582    -0.72800
Al629      Al  0.35013556  0.19389023  0.66809215     1.49000
C630        C  0.37450958  0.11211072  0.66248820     0.94500
O631        O  0.46587627  0.15165598  0.66160421    -0.79000
O632        O  0.44917328  0.26196704  0.70009543    -0.72600
Al633      Al  0.43079230  0.16437593  0.70052527     1.90100
O634        O  0.47791669  0.21416590  0.64452790    -0.71600
O635        O  0.38493219  0.28052713  0.65936729    -0.71500
O636        O  0.41247505  0.22751967  0.60720705    -0.77100
O637        O  0.33727433  0.24566909  0.68603509    -0.75300
O638        O  0.40313508  0.20042485  0.67450640    -1.11500
O639        O  0.33947417  0.17440810  0.71609703    -0.70700
C640        C  0.36112001  0.17222945  0.74409268     1.00100
C641        C  0.48688984  0.17705240  0.64461450     0.96400
Al642      Al  0.42875864  0.24260358  0.65454412     1.55600
O643        O  0.40032609  0.11767134  0.68687754    -0.75300
C644        C  0.35116800  0.27874586  0.67496754     1.00600
C645        C  0.46974621  0.24038777  0.72146542     0.95500
O646        O  0.46792054  0.20232330  0.72025786    -0.80600
O647        O  0.19558843  0.47764524  0.63153895    -0.80100
C648        C  0.15960768  0.36620945  0.74375114     0.99300
O649        O  0.14318299  0.40021819  0.73870403    -0.69200
O650        O  0.19628597  0.45895893  0.73570720    -0.72800
Al651      Al  0.15368694  0.44319361  0.70492705     1.49000
C652        C  0.22698033  0.47820594  0.72553000     0.94500
O653        O  0.26585448  0.40126467  0.67457917    -0.79000
O654        O  0.17049943  0.36912859  0.61902581    -0.72600
Al655      Al  0.22794941  0.43806311  0.65441524     1.90100
O656        O  0.23117368  0.34574561  0.66512766    -0.71600
O657        O  0.11832588  0.36611111  0.67123661    -0.71500
O658        O  0.17984319  0.34935225  0.71918959    -0.77100
O659        O  0.10735780  0.43121558  0.67695999    -0.75300
O660        O  0.18601675  0.41446813  0.67630206    -1.11500
O661        O  0.15705774  0.49255730  0.67789563    -0.70700
C662        C  0.17132747  0.50100921  0.64720314     1.00100
C663        C  0.26396770  0.36331285  0.67217429     0.96400
Al664      Al  0.17596602  0.36198292  0.66923203     1.55600
O665        O  0.24052102  0.47454675  0.69372048    -0.75300
C666        C  0.09533513  0.39635105  0.66868803     1.00600
C667        C  0.19486118  0.38618860  0.59797401     0.95500
O668        O  0.22338997  0.40775081  0.60987218    -0.80600
O669        O  0.82435783  0.47821729  0.88702052    -0.80100
C670        C  0.86023595  0.36651514  0.77495842     0.99300
O671        O  0.87672105  0.40049495  0.77999463    -0.69200
O672        O  0.82385963  0.45942876  0.78294166    -0.72800
Al673      Al  0.86635684  0.44350316  0.81375894     1.49000
C674        C  0.79315918  0.47870605  0.79304734     0.94500
O675        O  0.75398460  0.40182423  0.84409811    -0.79000
O676        O  0.84923251  0.36954716  0.89969562    -0.72600
Al677      Al  0.79197684  0.43860853  0.86419808     1.90100
O678        O  0.78855911  0.34625240  0.85356678    -0.71600
O679        O  0.90146361  0.36632053  0.84753303    -0.71500
O680        O  0.83996059  0.34970569  0.79952568    -0.77100
O681        O  0.91265053  0.43137264  0.84174034    -0.75300
O682        O  0.83389559  0.41488828  0.84237160    -1.11500
O683        O  0.86313826  0.49287624  0.84077013    -0.70700
C684        C  0.84876108  0.50146019  0.87138882     1.00100
C685        C  0.75579239  0.36386832  0.84652458     0.96400
Al686      Al  0.84380565  0.36237151  0.84948881     1.55600
O687        O  0.77949804  0.47503019  0.82481471    -0.75300
C688        C  0.92456683  0.39647653  0.85003448     1.00600
C689        C  0.82494328  0.38673263  0.92073286     0.95500
O690        O  0.79649183  0.40839079  0.90881215    -0.80600
O691        O  0.62092263  0.17343908  0.77642355    -0.80100
C692        C  0.64207155  0.21850752  0.92192192     0.99300
O693        O  0.67027282  0.21216274  0.89978793    -0.69200
O694        O  0.66447046  0.14172651  0.86964167    -0.72800
Al695      Al  0.66975860  0.19441535  0.85045892     1.49000
C696        C  0.64563067  0.11253931  0.85608327     0.94500
O697        O  0.55408993  0.15189361  0.85704446    -0.79000
O698        O  0.57059585  0.26219195  0.81835182    -0.72600
Al699      Al  0.58913824  0.16463766  0.81809442     1.90100
O700        O  0.54186998  0.21440976  0.87397658    -0.71600
O701        O  0.63474616  0.28099530  0.85914854    -0.71500
O702        O  0.60729296  0.22795280  0.91130629    -0.77100
O703        O  0.68251889  0.24624791  0.83255971    -0.75300
O704        O  0.61673354  0.20079779  0.84405180    -1.11500
O705        O  0.68044478  0.17502413  0.80243094    -0.70700
C706        C  0.65875756  0.17268830  0.77446924     1.00100
C707        C  0.53297961  0.17727157  0.87395709     0.96400
Al708      Al  0.59100162  0.24294690  0.86395265     1.55600
O709        O  0.61970792  0.11802265  0.83177540    -0.75300
C710        C  0.66855591  0.27929346  0.84362155     1.00600
C711        C  0.55006449  0.24053247  0.79701398     0.95500
O712        O  0.55192396  0.20247225  0.79831220    -0.80600
O713        O  0.62139457  0.87396526  0.74207383    -0.80100
C714        C  0.64258478  0.82910601  0.59648112     0.99300
O715        O  0.67075730  0.83547327  0.61862871    -0.69200
O716        O  0.66465536  0.90591619  0.64872798    -0.72800
Al717      Al  0.67016621  0.85326511  0.66794437     1.49000
C718        C  0.64577102  0.93504148  0.66235145     0.94500
O719        O  0.55443451  0.89551689  0.66154679    -0.79000
O720        O  0.57108815  0.78520470  0.70001528    -0.72600
Al721      Al  0.58953524  0.88278131  0.70043879     1.90100
O722        O  0.54238577  0.83302126  0.64443704    -0.71600
O723        O  0.63533590  0.76662019  0.65928660    -0.71500
O724        O  0.60781537  0.81961774  0.60709425    -0.77100
O725        O  0.68304318  0.80148250  0.68587254    -0.75300
O726        O  0.61716876  0.84672830  0.67439760    -1.11500
O727        O  0.68085804  0.87274302  0.71594421    -0.70700
C728        C  0.65923143  0.87492198  0.74395618     1.00100
C729        C  0.53341568  0.87013579  0.64455222     0.96400
Al730      Al  0.59152512  0.80455615  0.65445141     1.55600
O731        O  0.61999339  0.92947884  0.68677630    -0.75300
C732        C  0.66911996  0.76840245  0.67484612     1.00600
C733        C  0.55054312  0.80679948  0.72139801     0.95500
O734        O  0.55240753  0.84485860  0.72019261    -0.80600
O735        O  0.82467318  0.56946908  0.63139412    -0.80100
C736        C  0.86070367  0.68095560  0.74357107     0.99300
O737        O  0.87709296  0.64692964  0.73852951    -0.69200
O738        O  0.82396122  0.58821631  0.73556300    -0.72800
Al739      Al  0.86656221  0.60394753  0.70477061     1.49000
C740        C  0.79328894  0.56893372  0.72539724     0.94500
O741        O  0.75440421  0.64586702  0.67441278    -0.79000
O742        O  0.84973916  0.67800434  0.61883463    -0.72600
Al743      Al  0.79230943  0.60906049  0.65426142     1.90100
O744        O  0.78909379  0.70138966  0.66497512    -0.71600
O745        O  0.90194010  0.68099852  0.67102133    -0.71500
O746        O  0.84045922  0.69780739  0.71901269    -0.77100
O747        O  0.91288634  0.61589310  0.67679676    -0.75300
O748        O  0.83424153  0.63266751  0.67613569    -1.11500
O749        O  0.86318078  0.55457378  0.67776420    -0.70700
C750        C  0.84892569  0.54610999  0.64707310     1.00100
C751        C  0.75629751  0.68382032  0.67201863     0.96400
Al752      Al  0.84430105  0.68515056  0.66904828     1.55600
O753        O  0.77974110  0.57257977  0.69358881    -0.75300
C754        C  0.92492294  0.65074759  0.66851011     1.00600
C755        C  0.82537503  0.66094228  0.59779194     0.95500
O756        O  0.79686568  0.63935791  0.60970307    -0.80600
O757        O  0.39936013  0.87384629  0.77645337    -0.80100
C758        C  0.37829231  0.82876664  0.92197117     0.99300
O759        O  0.35007873  0.83509250  0.89984962    -0.69200
O760        O  0.35585901  0.90553173  0.86970162    -0.72800
Al761      Al  0.35056783  0.85284909  0.85051817     1.49000
C762        C  0.37468975  0.93472603  0.85613925     0.94500
O763        O  0.46622751  0.89540214  0.85702848    -0.79000
O764        O  0.44972035  0.78510404  0.81835043    -0.72600
Al765      Al  0.43116429  0.88265289  0.81810057     1.90100
O766        O  0.47846291  0.83288531  0.87395398    -0.71600
O767        O  0.38559811  0.76627614  0.85918288    -0.71500
O768        O  0.41306924  0.81933350  0.91133410    -0.77100
O769        O  0.33781088  0.80101765  0.83261700    -0.75300
O770        O  0.40358961  0.84648333  0.84407689    -1.11500
O771        O  0.33985400  0.87224328  0.80250194    -0.70700
C772        C  0.36152389  0.87457279  0.77452605     1.00100
C773        C  0.48734485  0.87002433  0.87393164     0.96400
Al774      Al  0.42933701  0.80434013  0.86396414     1.55600
O775        O  0.40059039  0.92925828  0.83180474    -0.75300
C776        C  0.35178776  0.76797033  0.84366055     1.00600
C777        C  0.47023822  0.80676146  0.79699446     0.95500
O778        O  0.46837991  0.84482343  0.79829087    -0.80600
O779        O  0.19608787  0.56899176  0.88712009    -0.80100
C780        C  0.16007597  0.68059013  0.77498221     0.99300
O781        O  0.14364717  0.64658763  0.78004526    -0.69200
O782        O  0.19655295  0.58770722  0.78302534    -0.72800
Al783      Al  0.15405189  0.60361931  0.81384010     1.49000
C784        C  0.22725293  0.56843768  0.79313421     0.94500
O785        O  0.26641663  0.64538571  0.84409696    -0.79000
O786        O  0.17118363  0.67764540  0.89972756    -0.72600
Al787      Al  0.22844789  0.60859499  0.86424471     1.90100
O788        O  0.23180563  0.70094505  0.85353032    -0.71600
O789        O  0.11891050  0.68079419  0.84760658    -0.71500
O790        O  0.18034612  0.69743656  0.79952965    -0.77100
O791        O  0.10774761  0.61573759  0.84181241    -0.75300
O792        O  0.18650287  0.63227710  0.84242148    -1.11500
O793        O  0.15730555  0.55427328  0.84089358    -0.70700
C794        C  0.17168437  0.54572715  0.87151878     1.00100
C795        C  0.26458665  0.68334388  0.84650323     0.96400
Al796      Al  0.17656253  0.68479084  0.84951019     1.55600
O797        O  0.24092253  0.57213862  0.82489205    -0.75300
C798        C  0.09581347  0.65063149  0.85008943     1.00600
C799        C  0.19549853  0.66048925  0.92075696     0.95500
O800        O  0.22395650  0.63884655  0.90883070    -0.80600
C801        C  0.32670340  0.73262018  0.84120851    -0.11500
C802        C  0.30027111  0.70755307  0.84224342    -0.13100
C803        C  0.69423425  0.73310526  0.67734834    -0.11500
C804        C  0.72065939  0.70805077  0.67630753    -0.13100
C805        C  0.52312899  0.78964903  0.74747220    -0.11500
C806        C  0.49761999  0.78966087  0.77086516    -0.13100
C807        C  0.72010066  0.33968029  0.84225509    -0.11500
C808        C  0.69365746  0.31462965  0.84119336    -0.13100
C809        C  0.77783008  0.53814124  0.74906686    -0.11500
C810        C  0.77778458  0.50951635  0.76935466    -0.13100
C811        C  0.24260280  0.53760112  0.76946336    -0.11500
C812        C  0.24249542  0.50896963  0.74918964    -0.13100
C813        C  0.29961005  0.33908421  0.67644707    -0.11500
C814        C  0.32604158  0.31403511  0.67747347    -0.13100
C815        C  0.49714910  0.25757475  0.74752107    -0.11500
C816        C  0.52266563  0.25761926  0.77090047    -0.13100
C817        C  0.66125713  0.03930407  0.88058007    -0.11500
C818        C  0.65380690  0.07234642  0.86859223    -0.13100
C819        C  0.64990035  0.83562940  0.55863552    -0.11500
C820        C  0.65533169  0.84719953  0.52805874    -0.13100
C821        C  0.68926706  0.88241476  0.80956409    -0.11500
C822        C  0.67785265  0.87894174  0.77877128    -0.13100
C823        C  0.55558924  0.89065792  0.90530301    -0.11500
C824        C  0.52334421  0.88291396  0.89202785    -0.13100
C825        C  0.02332162  0.66428418  0.87645334    -0.11500
C826        C  0.05557487  0.65650362  0.86320617    -0.13100
C827        C  0.82673340  0.81468160  0.92723838    -0.11500
C828        C  0.80030402  0.83974947  0.92620659    -0.13100
C829        C  0.83155844  0.66530983  0.55961102    -0.11500
C830        C  0.84290471  0.66875773  0.52879560    -0.13100
C831        C  0.86555654  0.70032837  0.77808080    -0.11500
C832        C  0.87099087  0.71193200  0.80864255    -0.13100
C833        C  0.85908612  0.53929504  0.88784714    -0.11500
C834        C  0.86650578  0.57234385  0.89983410    -0.13100
C835        C  0.02290724  0.38291966  0.64214258    -0.11500
C836        C  0.05512716  0.39060622  0.65548172    -0.13100
C837        C  0.84257280  0.37891444  0.98971147    -0.11500
C838        C  0.83116152  0.38240479  0.95891732    -0.13100
C839        C  0.87044265  0.33557765  0.70986645    -0.11500
C840        C  0.86502069  0.34714991  0.74043918    -0.13100
C841        C  0.85920159  0.50828215  0.63058966    -0.11500
C842        C  0.86656314  0.47522765  0.61859519    -0.13100
C843        C  0.74250656  0.00962587  0.99905954    -0.11500
C844        C  0.74239690  0.03826551  0.51932385    -0.13100
C845        C  0.65372670  0.97525236  0.64978737    -0.11500
C846        C  0.66101610  0.00831193  0.63776409    -0.13100
C847        C  0.82606289  0.23308915  0.59116624    -0.11500
C848        C  0.79961213  0.20805875  0.59217998    -0.13100
C849        C  0.64936019  0.21199404  0.95976074    -0.11500
C850        C  0.65476574  0.20041115  0.99032980    -0.13100
C851        C  0.67729906  0.16874251  0.73961624    -0.11500
C852        C  0.68862704  0.16531555  0.70879472    -0.13100
C853        C  0.52287263  0.16422477  0.62647330    -0.11500
C854        C  0.55510252  0.15658475  0.61313035    -0.13100
C855        C  0.36650898  0.07189815  0.64994916    -0.11500
C856        C  0.35918607  0.03884440  0.63793001    -0.13100
C857        C  0.36558697  0.84684366  0.99039342    -0.11500
C858        C  0.37101242  0.83527779  0.95981848    -0.13100
C859        C  0.34295706  0.87846970  0.73968720    -0.11500
C860        C  0.33160610  0.88184995  0.70887280    -0.13100
C861        C  0.46517791  0.89064691  0.61315429    -0.11500
C862        C  0.49742345  0.88298507  0.62644849    -0.13100
C863        C  0.99763573  0.75756565  0.99758727    -0.11500
C864        C  0.02313293  0.75751868  0.52098910    -0.13100
C865        C  0.96514480  0.65646158  0.65533800    -0.11500
C866        C  0.99738574  0.66411476  0.64202755    -0.13100
C867        C  0.19421800  0.81402702  0.59119957    -0.11500
C868        C  0.22066166  0.83906784  0.59222731    -0.13100
C869        C  0.18929318  0.66481063  0.95894035    -0.11500
C870        C  0.17787197  0.66825891  0.98973443    -0.13100
C871        C  0.15523230  0.69993477  0.74045288    -0.11500
C872        C  0.14977528  0.71149097  0.70987627    -0.13100
C873        C  0.16106321  0.53882907  0.63069527    -0.11500
C874        C  0.15373053  0.57187217  0.61865792    -0.13100
C875        C  0.35909896  0.00793943  0.88069671    -0.11500
C876        C  0.36653318  0.97490813  0.86868024    -0.13100
C877        C  0.27786295  0.00895914  0.51947095    -0.11500
C878        C  0.27780257  0.03760395  0.99921141    -0.13100
C879        C  0.36496220  0.19998174  0.52819974    -0.11500
C880        C  0.37037319  0.21153799  0.55877746    -0.13100
C881        C  0.34251915  0.16823163  0.77892103    -0.11500
C882        C  0.33110609  0.16478626  0.80971834    -0.13100
C883        C  0.49698315  0.16437809  0.89207249    -0.11500
C884        C  0.46475183  0.15660972  0.90537583    -0.13100
C885        C  0.99701491  0.38284229  0.87650865    -0.11500
C886        C  0.96478402  0.39060007  0.86320635    -0.13100
C887        C  0.99721101  0.28953919  0.52107977    -0.11500
C888        C  0.02271416  0.28954774  0.99768514    -0.13100
C889        C  0.22005119  0.20747666  0.92637868    -0.11500
C890        C  0.19362324  0.23254606  0.92741181    -0.13100
C891        C  0.17729611  0.37843822  0.52898741    -0.11500
C892        C  0.18865111  0.38185123  0.55979904    -0.13100
C893        C  0.14941074  0.33527379  0.80883941    -0.11500
C894        C  0.15480969  0.34685984  0.77827079    -0.13100
C895        C  0.16134764  0.50791332  0.88802022    -0.11500
C896        C  0.15388406  0.47487639  0.90001914    -0.13100
loop_ 
_geom_bond_atom_site_label_1 
_geom_bond_atom_site_label_2 
_geom_bond_distance 
_geom_bond_site_symmetry_2 
_ccdc_geom_bond_type 
O1           C16   1.259       .  A
O1           Al9   1.889       .  S
C2           O12   1.259       .  A
C2            O3   1.261       .  A
C2          C445   1.435       .  S
O3           Al5   1.915       .  S
O4            C6   1.254       .  A
O4           Al5   1.888       .  S
Al5          O13   1.884       .  S
Al5          O15   1.919       .  S
Al5          O14   1.790       .  S
C6           O19   1.257       .  A
C6          C448   1.432       .  S
O7           C17   1.259       .  A
O7           Al9   1.898       .  S
O8           C21   1.264       .  A
O8          Al18   1.924       .  S
Al9          O22   1.904       .  S
Al9          O19   1.913       .  S
Al9          O14   1.786       .  S
O10          C17   1.262       .  A
O10         Al18   1.921       .  S
O11          C20   1.262       .  A
O11         Al18   1.930       .  S
O12         Al18   1.897       .  S
O13          C20   1.255       .  A
O14         Al18   1.792       .  S
O15          C16   1.262       .  A
C16         C891   1.433       .  S
C17         C437   1.435   1_455  S
C20         C442   1.438       .  S
C21          O22   1.260       .  A
C21         C440   1.442       .  S
O23          C38   1.257       .  A
O23         Al31   1.892       .  S
C24          O34   1.259       .  A
C24          O25   1.263       .  A
C24         C879   1.436       .  S
O25         Al27   1.922       .  S
O26          C28   1.259       .  A
O26         Al27   1.888       .  S
Al27         O35   1.896       .  S
Al27         O37   1.916       .  S
Al27         O36   1.782       .  S
C28          O41   1.264       .  A
C28         C430   1.436       .  S
O29          C39   1.259       .  A
O29         Al31   1.903       .  S
O30          C43   1.256       .  A
O30         Al40   1.879       .  S
Al31         O44   1.933       .  S
Al31         O41   1.933       .  S
Al31         O36   1.790       .  S
O32          C39   1.261       .  A
O32         Al40   1.917       .  S
O33          C42   1.261       .  A
O33         Al40   1.921       .  S
O34         Al40   1.897       .  S
O35          C42   1.257       .  A
O36         Al40   1.786       .  S
O37          C38   1.260       .  A
C38         C427   1.432       .  S
C39         C441   1.439       .  S
C42         C436   1.435       .  S
C43          O44   1.265       .  A
C43         C434   1.433       .  S
O45          C60   1.259       .  A
O45         Al53   1.890       .  S
C46          O56   1.259       .  A
C46          O47   1.261       .  A
C46         C424   1.435       .  S
O47         Al49   1.915       .  S
O48          C50   1.254       .  A
O48         Al49   1.888       .  S
Al49         O57   1.884       .  S
Al49         O59   1.920       .  S
Al49         O58   1.789       .  S
C50          O63   1.257       .  A
C50         C426   1.432       .  S
O51          C61   1.259       .  A
O51         Al53   1.898       .  S
O52          C65   1.265       .  A
O52         Al62   1.924       .  S
Al53         O66   1.904       .  S
Al53         O63   1.913       .  S
Al53         O58   1.785       .  S
O54          C61   1.262       .  A
O54         Al62   1.920       .  S
O55          C64   1.262       .  A
O55         Al62   1.929       .  S
O56         Al62   1.898       .  S
O57          C64   1.255       .  A
O58         Al62   1.792       .  S
O59          C60   1.262       .  A
C60         C870   1.433   1_554  S
C61         C418   1.434   1_455  S
C64         C419   1.437       .  S
C65          O66   1.260       .  A
C65         C416   1.442       .  S
O67          C82   1.257   1_565  A
O67         Al75   1.892       .  S
C68          O78   1.259       .  A
C68          O69   1.263       .  A
C68         C857   1.436   1_554  S
O69         Al71   1.922       .  S
O70          C72   1.259       .  A
O70         Al71   1.888       .  S
Al71         O79   1.895       .  S
Al71         O81   1.916       .  S
Al71         O80   1.781       .  S
C72          O85   1.264       .  A
C72         C429   1.436   1_565  S
O73          C83   1.259       .  A
O73         Al75   1.902       .  S
O74          C87   1.256       .  A
O74         Al84   1.879       .  S
Al75         O88   1.932       .  S
Al75         O85   1.933       .  S
Al75         O80   1.789       .  S
O76          C83   1.262       .  A
O76         Al84   1.917       .  S
O77          C86   1.261       .  A
O77         Al84   1.921       .  S
O78         Al84   1.897       .  S
O79          C86   1.257       .  A
O80         Al84   1.785       .  S
O81          C82   1.260   1_565  A
C82         C408   1.432       .  S
C83         C420   1.438       .  S
C86         C413   1.434       .  S
C87          O88   1.264       .  A
C87         C412   1.433       .  S
O89         C104   1.257       .  A
O89         Al97   1.892       .  S
C90         O100   1.259       .  A
C90          O91   1.263       .  A
C90         C850   1.436   1_554  S
O91         Al93   1.922       .  S
O92          C94   1.259       .  A
O92         Al93   1.889       .  S
Al93        O101   1.895       .  S
Al93        O103   1.916       .  S
Al93        O102   1.781       .  S
C94         O107   1.264       .  A
C94         C396   1.436       .  S
O95         C105   1.259       .  A
O95         Al97   1.902       .  S
O96         C109   1.256       .  A
O96        Al106   1.879       .  S
Al97        O110   1.932       .  S
Al97        O107   1.933       .  S
Al97        O102   1.789       .  S
O98         C105   1.262       .  A
O98        Al106   1.917       .  S
O99         C108   1.261       .  A
O99        Al106   1.921       .  S
O100       Al106   1.897       .  S
O101        C108   1.257       .  A
O102       Al106   1.785       .  S
O103        C104   1.260       .  A
C104        C398   1.432       .  S
C105        C400   1.438       .  S
C108        C406   1.434       .  S
C109        O110   1.265       .  A
C109        C404   1.433       .  S
O111        C126   1.259       .  A
O111       Al119   1.890       .  S
C112        O122   1.259       .  A
C112        O113   1.261       .  A
C112        C391   1.435       .  S
O113       Al115   1.915       .  S
O114        C116   1.254       .  A
O114       Al115   1.888       .  S
Al115       O123   1.884       .  S
Al115       O125   1.920       .  S
Al115       O124   1.789       .  S
C116        O129   1.257       .  A
C116        C394   1.432       .  S
O117        C127   1.259       .  A
O117       Al119   1.898       .  S
O118        C131   1.264       .  A
O118       Al128   1.924       .  S
Al119       O132   1.904       .  S
Al119       O129   1.913       .  S
Al119       O124   1.785       .  S
O120        C127   1.262       .  A
O120       Al128   1.920       .  S
O121        C130   1.262       .  A
O121       Al128   1.929       .  S
O122       Al128   1.897       .  S
O123        C130   1.255       .  A
O124       Al128   1.792       .  S
O125        C126   1.262       .  A
C126        C837   1.434   1_554  S
C127        C387   1.434   1_655  S
C130        C399   1.437       .  S
C131        O132   1.260       .  A
C131        C439   1.441       .  S
O133        C148   1.259       .  A
O133       Al141   1.889       .  S
C134        O144   1.259       .  A
C134        O135   1.261       .  A
C134        C384   1.435       .  S
O135       Al137   1.915       .  S
O136        C138   1.254       .  A
O136       Al137   1.888       .  S
Al137       O145   1.884       .  S
Al137       O147   1.920       .  S
Al137       O146   1.790       .  S
C138        O151   1.257       .  A
C138        C386   1.432       .  S
O139        C149   1.259       .  A
O139       Al141   1.898       .  S
O140        C153   1.265       .  A
O140       Al150   1.924       .  S
Al141       O154   1.904       .  S
Al141       O151   1.913       .  S
Al141       O146   1.786       .  S
O142        C149   1.262       .  A
O142       Al150   1.921       .  S
O143        C152   1.262       .  A
O143       Al150   1.930       .  S
O144       Al150   1.898       .  S
O145        C152   1.255       .  A
O146       Al150   1.792       .  S
O147        C148   1.262       .  A
C148        C830   1.433       .  S
C149        C377   1.435   1_655  S
C152        C379   1.438       .  S
C153        O154   1.260       .  A
C153        C415   1.442       .  S
O155        C170   1.257   1_565  A
O155       Al163   1.893       .  S
C156        O166   1.259       .  A
C156        O157   1.263       .  A
C156        C820   1.436       .  S
O157       Al159   1.922       .  S
O158        C160   1.259       .  A
O158       Al159   1.888       .  S
Al159       O167   1.896       .  S
Al159       O169   1.916       .  S
Al159       O168   1.782       .  S
C160        O173   1.264       .  A
C160        C395   1.436   1_565  S
O161        C171   1.259       .  A
O161       Al163   1.903       .  S
O162        C175   1.256       .  A
O162       Al172   1.879       .  S
Al163       O176   1.933       .  S
Al163       O173   1.933       .  S
Al163       O168   1.790       .  S
O164        C171   1.261       .  A
O164       Al172   1.917       .  S
O165        C174   1.261       .  A
O165       Al172   1.921       .  S
O166       Al172   1.897       .  S
O167        C174   1.257       .  A
O168       Al172   1.786       .  S
O169        C170   1.260   1_565  A
C170        C369   1.432       .  S
C171        C380   1.439       .  S
C174        C375   1.435       .  S
C175        O176   1.265       .  A
C175        C373   1.433       .  S
O177        C192   1.259       .  A
O177       Al185   1.890       .  S
C178        O188   1.259       .  A
C178        O179   1.261       .  A
C178        C432   1.435       .  S
O179       Al181   1.915       .  S
O180        C182   1.254       .  A
O180       Al181   1.888       .  S
Al181       O189   1.884       .  S
Al181       O191   1.920       .  S
Al181       O190   1.789       .  S
C182        O195   1.257       .  A
C182        C407   1.432       .  S
O183        C193   1.259       .  A
O183       Al185   1.898       .  S
O184        C197   1.264       .  A
O184       Al194   1.924       .  S
Al185       O198   1.904       .  S
Al185       O195   1.913       .  S
Al185       O190   1.785       .  S
O186        C193   1.262       .  A
O186       Al194   1.920       .  S
O187        C196   1.262       .  A
O187       Al194   1.929       .  S
O188       Al194   1.897       .  S
O189        C196   1.255       .  A
O190       Al194   1.792       .  S
O191        C192   1.262       .  A
C192        C433   1.433       .  S
C193        C405   1.434       .  S
C196        C366   1.437       .  S
C197        O198   1.260       .  A
C197        C367   1.442       .  S
O199        C214   1.257       .  A
O199       Al207   1.892       .  S
C200        O210   1.259       .  A
C200        O201   1.263       .  A
C200        C446   1.435       .  S
O201       Al203   1.922       .  S
O202        C204   1.259       .  A
O202       Al203   1.889       .  S
Al203       O211   1.895       .  S
Al203       O213   1.916       .  S
Al203       O212   1.781       .  S
C204        O217   1.264       .  A
C204        C364   1.436       .  S
O205        C215   1.259       .  A
O205       Al207   1.902       .  S
O206        C219   1.256       .  A
O206       Al216   1.879       .  S
Al207       O220   1.933       .  S
Al207       O217   1.933       .  S
Al207       O212   1.789       .  S
O208        C215   1.262       .  A
O208       Al216   1.917       .  S
O209        C218   1.261       .  A
O209       Al216   1.921       .  S
O210       Al216   1.897       .  S
O211        C218   1.257       .  A
O212       Al216   1.786       .  S
O213        C214   1.260       .  A
C214        C425   1.432       .  S
C215        C365   1.438       .  S
C218        C388   1.435       .  S
C219        O220   1.265       .  A
C219        C444   1.433       .  S
O221        C236   1.257       .  A
O221       Al229   1.892       .  S
C222        O232   1.259       .  A
C222        O223   1.263       .  A
C222        C392   1.436       .  S
O223       Al225   1.922       .  S
O224        C226   1.259       .  A
O224       Al225   1.888       .  S
Al225       O233   1.896       .  S
Al225       O235   1.916       .  S
Al225       O234   1.782       .  S
C226        O239   1.264       .  A
C226        C362   1.437       .  S
O227        C237   1.259       .  A
O227       Al229   1.903       .  S
O228        C241   1.256       .  A
O228       Al238   1.879       .  S
Al229       O242   1.933       .  S
Al229       O239   1.933       .  S
Al229       O234   1.790       .  S
O230        C237   1.261       .  A
O230       Al238   1.917       .  S
O231        C240   1.261       .  A
O231       Al238   1.921       .  S
O232       Al238   1.897       .  S
O233        C240   1.257       .  A
O234       Al238   1.786       .  S
O235        C236   1.260       .  A
C236        C385   1.432       .  S
C237        C359   1.439       .  S
C240        C438   1.435       .  S
C241        O242   1.265       .  A
C241        C390   1.433       .  S
O243        C258   1.259       .  A
O243       Al251   1.889       .  S
C244        O254   1.259       .  A
C244        O245   1.261       .  A
C244        C401   1.435       .  S
O245       Al247   1.915       .  S
O246        C248   1.254       .  A
O246       Al247   1.888       .  S
Al247       O255   1.884       .  S
Al247       O257   1.920       .  S
Al247       O256   1.790       .  S
C248        O261   1.257       .  A
C248        C370   1.432       .  S
O249        C259   1.259       .  A
O249       Al251   1.898       .  S
O250        C263   1.265       .  A
O250       Al260   1.924       .  S
Al251       O264   1.904       .  S
Al251       O261   1.913       .  S
Al251       O256   1.786       .  S
O252        C259   1.262       .  A
O252       Al260   1.921       .  S
O253        C262   1.262       .  A
O253       Al260   1.930       .  S
O254       Al260   1.897       .  S
O255        C262   1.255       .  A
O256       Al260   1.792       .  S
O257        C258   1.262       .  A
C258        C403   1.433       .  S
C259        C435   1.435       .  S
C262        C360   1.438       .  S
C263        O264   1.260       .  A
C263        C368   1.442       .  S
O265        C280   1.259       .  A
O265       Al273   1.890       .  S
C266        O276   1.259       .  A
C266        O267   1.261       .  A
C266        C371   1.435       .  S
O267       Al269   1.915       .  S
O268        C270   1.254       .  A
O268       Al269   1.888       .  S
Al269       O277   1.884       .  S
Al269       O279   1.920       .  S
Al269       O278   1.790       .  S
C270        O283   1.257       .  A
C270        C397   1.432       .  S
O271        C281   1.259       .  A
O271       Al273   1.898       .  S
O272        C285   1.265       .  A
O272       Al282   1.924       .  S
Al273       O286   1.904       .  S
Al273       O283   1.913       .  S
Al273       O278   1.785       .  S
O274        C281   1.262       .  A
O274       Al282   1.920       .  S
O275        C284   1.262       .  A
O275       Al282   1.929       .  S
O276       Al282   1.898       .  S
O277        C284   1.255       .  A
O278       Al282   1.792       .  S
O279        C280   1.262       .  A
C280        C374   1.433       .  S
C281        C414   1.434       .  S
C284        C355   1.437       .  S
C285        O286   1.260       .  A
C285        C357   1.442       .  S
O287        C302   1.257       .  A
O287       Al295   1.892       .  S
C288        O298   1.259       .  A
C288        O289   1.263       .  A
C288        C383   1.436       .  S
O289       Al291   1.922       .  S
O290        C292   1.259       .  A
O290       Al291   1.888       .  S
Al291       O299   1.895       .  S
Al291       O301   1.916       .  S
Al291       O300   1.781       .  S
C292        O305   1.264       .  A
C292        C361   1.437       .  S
O293        C303   1.259       .  A
O293       Al295   1.902       .  S
O294        C307   1.256       .  A
O294       Al304   1.879       .  S
Al295       O308   1.933       .  S
Al295       O305   1.933       .  S
Al295       O300   1.789       .  S
O296        C303   1.262       .  A
O296       Al304   1.917       .  S
O297        C306   1.261       .  A
O297       Al304   1.921       .  S
O298       Al304   1.897       .  S
O299        C306   1.257       .  A
O300       Al304   1.786       .  S
O301        C302   1.260       .  A
C302        C393   1.432       .  S
C303        C356   1.438       .  S
C306        C417   1.434       .  S
C307        O308   1.265       .  A
C307        C381   1.433       .  S
O309        C324   1.259       .  A
O309       Al317   1.889       .  S
C310        O320   1.259       .  A
C310        O311   1.261       .  A
C310        C410   1.435       .  S
O311       Al313   1.915       .  S
O312        C314   1.254       .  A
O312       Al313   1.888       .  S
Al313       O321   1.884       .  S
Al313       O323   1.919       .  S
Al313       O322   1.790       .  S
C314        O327   1.257       .  A
C314        C428   1.432       .  S
O315        C325   1.259       .  A
O315       Al317   1.898       .  S
O316        C329   1.265       .  A
O316       Al326   1.924       .  S
Al317       O330   1.904       .  S
Al317       O327   1.913       .  S
Al317       O322   1.786       .  S
O318        C325   1.262       .  A
O318       Al326   1.921       .  S
O319        C328   1.262       .  A
O319       Al326   1.930       .  S
O320       Al326   1.897       .  S
O321        C328   1.255       .  A
O322       Al326   1.792       .  S
O323        C324   1.262       .  A
C324        C411   1.433       .  S
C325        C376   1.435       .  S
C328        C353   1.438       .  S
C329        O330   1.260       .  A
C329        C358   1.442       .  S
O331        C346   1.257       .  A
O331       Al339   1.893       .  S
C332        O342   1.259       .  A
C332        O333   1.263       .  A
C332        C423   1.436       .  S
O333       Al335   1.922       .  S
O334        C336   1.259       .  A
O334       Al335   1.888       .  S
Al335       O343   1.896       .  S
Al335       O345   1.916       .  S
Al335       O344   1.782       .  S
C336        O349   1.264       .  A
C336        C363   1.436       .  S
O337        C347   1.259       .  A
O337       Al339   1.903       .  S
O338        C351   1.256       .  A
O338       Al348   1.879       .  S
Al339       O352   1.933       .  S
Al339       O349   1.933       .  S
Al339       O344   1.790       .  S
O340        C347   1.261       .  A
O340       Al348   1.917       .  S
O341        C350   1.261       .  A
O341       Al348   1.921       .  S
O342       Al348   1.897       .  S
O343        C350   1.257       .  A
O344       Al348   1.786       .  S
O345        C346   1.260       .  A
C346        C447   1.432       .  S
C347        C354   1.439       .  S
C350        C378   1.435       .  S
C351        O352   1.265       .  A
C351        C421   1.433       .  S
C353        C354   1.208       .  T
C355        C356   1.207       .  T
C357        C358   1.210       .  T
C359        C360   1.208       .  T
C361        C362   1.207       .  T
C363        C364   1.207       .  T
C365        C366   1.207       .  T
C367        C368   1.210       .  T
C369        C370   1.204       .  T
C371        C372   1.206       .  T
C372        C604   1.436   1_554  S
C373        C374   1.205       .  T
C375        C376   1.206       .  T
C377        C378   1.206       .  T
C379        C380   1.208       .  T
C381        C382   1.205       .  T
C382        C596   1.433   1_554  S
C383        C384   1.206       .  T
C385        C386   1.204       .  T
C387        C388   1.205       .  T
C389        C574   1.434       .  S
C389        C390   1.205       .  T
C391        C392   1.206       .  T
C393        C394   1.204       .  T
C395        C844   1.207       .  T
C396        C843   1.207   1_554  T
C397        C398   1.204   1_565  T
C399        C400   1.207       .  T
C401        C402   1.206       .  T
C402        C538   1.436       .  S
C403        C404   1.205       .  T
C405        C406   1.205       .  T
C407        C408   1.204       .  T
C409        C516   1.436       .  S
C409        C410   1.206       .  T
C411        C412   1.204       .  T
C413        C414   1.205       .  T
C415        C864   1.210   1_655  T
C416        C863   1.210   1_454  T
C417        C418   1.205       .  T
C419        C420   1.207       .  T
C421        C422   1.205       .  T
C422        C508   1.433       .  S
C423        C424   1.206       .  T
C425        C426   1.204       .  T
C427        C428   1.204   1_545  T
C429        C878   1.207   1_554  T
C430        C877   1.207       .  T
C431        C472   1.436   1_554  S
C431        C432   1.206       .  T
C433        C434   1.205       .  T
C435        C436   1.206       .  T
C437        C438   1.206       .  T
C439        C888   1.210   1_654  T
C440        C887   1.210   1_455  T
C441        C442   1.208       .  T
C443        C464   1.433   1_554  S
C443        C444   1.205       .  T
C445        C446   1.206       .  T
C447        C448   1.204       .  T
O449        C464   1.259       .  A
O449       Al457   1.889       .  S
C450        O460   1.259       .  A
C450        O451   1.261       .  A
C450        C893   1.435       .  S
O451       Al453   1.915       .  S
O452        C454   1.254       .  A
O452       Al453   1.888       .  S
Al453       O461   1.884       .  S
Al453       O463   1.919       .  S
Al453       O462   1.790       .  S
C454        O467   1.257       .  A
C454        C896   1.432       .  S
O455        C465   1.259       .  A
O455       Al457   1.898       .  S
O456        C469   1.264       .  A
O456       Al466   1.924       .  S
Al457       O470   1.904       .  S
Al457       O467   1.913       .  S
Al457       O462   1.786       .  S
O458        C465   1.262       .  A
O458       Al466   1.921       .  S
O459        C468   1.262       .  A
O459       Al466   1.930       .  S
O460       Al466   1.897       .  S
O461        C468   1.255       .  A
O462       Al466   1.792       .  S
O463        C464   1.262       .  A
C465        C885   1.435   1_455  S
C468        C890   1.438       .  S
C469        O470   1.260       .  A
C469        C888   1.442       .  S
O471        C486   1.257       .  A
O471       Al479   1.892       .  S
C472        O482   1.259       .  A
C472        O473   1.263       .  A
O473       Al475   1.922       .  S
O474        C476   1.259       .  A
O474       Al475   1.888       .  S
Al475       O483   1.896       .  S
Al475       O485   1.916       .  S
Al475       O484   1.782       .  S
C476        O489   1.264       .  A
C476        C878   1.436       .  S
O477        C487   1.259       .  A
O477       Al479   1.903       .  S
O478        C491   1.256       .  A
O478       Al488   1.879       .  S
Al479       O492   1.933       .  S
Al479       O489   1.933       .  S
Al479       O484   1.790       .  S
O480        C487   1.261       .  A
O480       Al488   1.917       .  S
O481        C490   1.261       .  A
O481       Al488   1.921       .  S
O482       Al488   1.897       .  S
O483        C490   1.257       .  A
O484       Al488   1.786       .  S
O485        C486   1.260       .  A
C486        C875   1.432       .  S
C487        C889   1.439       .  S
C490        C884   1.435       .  S
C491        O492   1.265       .  A
C491        C882   1.433       .  S
O493        C508   1.259       .  A
O493       Al501   1.890       .  S
C494        O504   1.259       .  A
C494        O495   1.261       .  A
C494        C872   1.435       .  S
O495       Al497   1.915       .  S
O496        C498   1.254       .  A
O496       Al497   1.888       .  S
Al497       O505   1.884       .  S
Al497       O507   1.920       .  S
Al497       O506   1.789       .  S
C498        O511   1.257       .  A
C498        C874   1.432       .  S
O499        C509   1.259       .  A
O499       Al501   1.898       .  S
O500        C513   1.265       .  A
O500       Al510   1.924       .  S
Al501       O514   1.904       .  S
Al501       O511   1.913       .  S
Al501       O506   1.785       .  S
O502        C509   1.262       .  A
O502       Al510   1.920       .  S
O503        C512   1.262       .  A
O503       Al510   1.929       .  S
O504       Al510   1.898       .  S
O505        C512   1.255       .  A
O506       Al510   1.792       .  S
O507        C508   1.262       .  A
C509        C866   1.434   1_455  S
C512        C867   1.437       .  S
C513        O514   1.260       .  A
C513        C864   1.442       .  S
O515        C530   1.257   1_565  A
O515       Al523   1.892       .  S
C516        O526   1.259       .  A
C516        O517   1.263       .  A
O517       Al519   1.922       .  S
O518        C520   1.259       .  A
O518       Al519   1.888       .  S
Al519       O527   1.895       .  S
Al519       O529   1.916       .  S
Al519       O528   1.781       .  S
C520        O533   1.264       .  A
C520        C877   1.436   1_565  S
O521        C531   1.259       .  A
O521       Al523   1.902       .  S
O522        C535   1.256       .  A
O522       Al532   1.879       .  S
Al523       O536   1.932       .  S
Al523       O533   1.933       .  S
Al523       O528   1.789       .  S
O524        C531   1.262       .  A
O524       Al532   1.917       .  S
O525        C534   1.261       .  A
O525       Al532   1.921       .  S
O526       Al532   1.897       .  S
O527        C534   1.257       .  A
O528       Al532   1.785       .  S
O529        C530   1.260   1_565  A
C530        C856   1.432       .  S
C531        C868   1.438       .  S
C534        C861   1.434       .  S
C535        O536   1.264       .  A
C535        C860   1.433       .  S
O537        C552   1.257       .  A
O537       Al545   1.892       .  S
C538        O548   1.259       .  A
C538        O539   1.263       .  A
O539       Al541   1.922       .  S
O540        C542   1.259       .  A
O540       Al541   1.889       .  S
Al541       O549   1.895       .  S
Al541       O551   1.916       .  S
Al541       O550   1.781       .  S
C542        O555   1.264       .  A
C542        C844   1.436       .  S
O543        C553   1.259       .  A
O543       Al545   1.902       .  S
O544        C557   1.256       .  A
O544       Al554   1.879       .  S
Al545       O558   1.932       .  S
Al545       O555   1.933       .  S
Al545       O550   1.789       .  S
O546        C553   1.262       .  A
O546       Al554   1.917       .  S
O547        C556   1.261       .  A
O547       Al554   1.921       .  S
O548       Al554   1.897       .  S
O549        C556   1.257       .  A
O550       Al554   1.785       .  S
O551        C552   1.260       .  A
C552        C846   1.432       .  S
C553        C848   1.438       .  S
C556        C854   1.434       .  S
C557        O558   1.265       .  A
C557        C852   1.433       .  S
O559        C574   1.259       .  A
O559       Al567   1.890       .  S
C560        O570   1.259       .  A
C560        O561   1.261       .  A
C560        C839   1.435       .  S
O561       Al563   1.915       .  S
O562        C564   1.254       .  A
O562       Al563   1.888       .  S
Al563       O571   1.884       .  S
Al563       O573   1.920       .  S
Al563       O572   1.789       .  S
C564        O577   1.257       .  A
C564        C842   1.432       .  S
O565        C575   1.259       .  A
O565       Al567   1.898       .  S
O566        C579   1.264       .  A
O566       Al576   1.924       .  S
Al567       O580   1.904       .  S
Al567       O577   1.913       .  S
Al567       O572   1.785       .  S
O568        C575   1.262       .  A
O568       Al576   1.920       .  S
O569        C578   1.262       .  A
O569       Al576   1.929       .  S
O570       Al576   1.897       .  S
O571        C578   1.255       .  A
O572       Al576   1.792       .  S
O573        C574   1.262       .  A
C575        C835   1.434   1_655  S
C578        C847   1.437       .  S
C579        O580   1.260       .  A
C579        C887   1.441       .  S
O581        C596   1.259       .  A
O581       Al589   1.889       .  S
C582        O592   1.259       .  A
C582        O583   1.261       .  A
C582        C832   1.435       .  S
O583       Al585   1.915       .  S
O584        C586   1.254       .  A
O584       Al585   1.888       .  S
Al585       O593   1.884       .  S
Al585       O595   1.920       .  S
Al585       O594   1.790       .  S
C586        O599   1.257       .  A
C586        C834   1.432       .  S
O587        C597   1.259       .  A
O587       Al589   1.898       .  S
O588        C601   1.265       .  A
O588       Al598   1.924       .  S
Al589       O602   1.904       .  S
Al589       O599   1.913       .  S
Al589       O594   1.786       .  S
O590        C597   1.262       .  A
O590       Al598   1.921       .  S
O591        C600   1.262       .  A
O591       Al598   1.930       .  S
O592       Al598   1.898       .  S
O593        C600   1.255       .  A
O594       Al598   1.792       .  S
O595        C596   1.262       .  A
C597        C825   1.435   1_655  S
C600        C827   1.438       .  S
C601        O602   1.260       .  A
C601        C863   1.442       .  S
O603        C618   1.257   1_565  A
O603       Al611   1.893       .  S
C604        O614   1.259       .  A
C604        O605   1.263       .  A
O605       Al607   1.922       .  S
O606        C608   1.259       .  A
O606       Al607   1.888       .  S
Al607       O615   1.896       .  S
Al607       O617   1.916       .  S
Al607       O616   1.782       .  S
C608        O621   1.264       .  A
C608        C843   1.436   1_565  S
O609        C619   1.259       .  A
O609       Al611   1.903       .  S
O610        C623   1.256       .  A
O610       Al620   1.879       .  S
Al611       O624   1.933       .  S
Al611       O621   1.933       .  S
Al611       O616   1.790       .  S
O612        C619   1.261       .  A
O612       Al620   1.917       .  S
O613        C622   1.261       .  A
O613       Al620   1.921       .  S
O614       Al620   1.897       .  S
O615        C622   1.257       .  A
O616       Al620   1.786       .  S
O617        C618   1.260   1_565  A
C618        C817   1.432       .  S
C619        C828   1.439       .  S
C622        C823   1.435       .  S
C623        O624   1.265       .  A
C623        C821   1.433       .  S
O625        C640   1.259       .  A
O625       Al633   1.890       .  S
C626        O636   1.259       .  A
C626        O627   1.261       .  A
C626        C880   1.435       .  S
O627       Al629   1.915       .  S
O628        C630   1.254       .  A
O628       Al629   1.888       .  S
Al629       O637   1.884       .  S
Al629       O639   1.920       .  S
Al629       O638   1.789       .  S
C630        O643   1.257       .  A
C630        C855   1.432       .  S
O631        C641   1.259       .  A
O631       Al633   1.898       .  S
O632        C645   1.264       .  A
O632       Al642   1.924       .  S
Al633       O646   1.904       .  S
Al633       O643   1.913       .  S
Al633       O638   1.785       .  S
O634        C641   1.262       .  A
O634       Al642   1.920       .  S
O635        C644   1.262       .  A
O635       Al642   1.929       .  S
O636       Al642   1.897       .  S
O637        C644   1.255       .  A
O638       Al642   1.792       .  S
O639        C640   1.262       .  A
C640        C881   1.433       .  S
C641        C853   1.434       .  S
C644        C814   1.437       .  S
C645        O646   1.260       .  A
C645        C815   1.442       .  S
O647        C662   1.257       .  A
O647       Al655   1.892       .  S
C648        O658   1.259       .  A
C648        O649   1.263       .  A
C648        C894   1.435       .  S
O649       Al651   1.922       .  S
O650        C652   1.259       .  A
O650       Al651   1.889       .  S
Al651       O659   1.895       .  S
Al651       O661   1.916       .  S
Al651       O660   1.781       .  S
C652        O665   1.264       .  A
C652        C812   1.436       .  S
O653        C663   1.259       .  A
O653       Al655   1.902       .  S
O654        C667   1.256       .  A
O654       Al664   1.879       .  S
Al655       O668   1.933       .  S
Al655       O665   1.933       .  S
Al655       O660   1.789       .  S
O656        C663   1.262       .  A
O656       Al664   1.917       .  S
O657        C666   1.261       .  A
O657       Al664   1.921       .  S
O658       Al664   1.897       .  S
O659        C666   1.257       .  A
O660       Al664   1.786       .  S
O661        C662   1.260       .  A
C662        C873   1.432       .  S
C663        C813   1.438       .  S
C666        C836   1.435       .  S
C667        O668   1.265       .  A
C667        C892   1.433       .  S
O669        C684   1.257       .  A
O669       Al677   1.892       .  S
C670        O680   1.259       .  A
C670        O671   1.263       .  A
C670        C840   1.436       .  S
O671       Al673   1.922       .  S
O672        C674   1.259       .  A
O672       Al673   1.888       .  S
Al673       O681   1.896       .  S
Al673       O683   1.916       .  S
Al673       O682   1.782       .  S
C674        O687   1.264       .  A
C674        C810   1.437       .  S
O675        C685   1.259       .  A
O675       Al677   1.903       .  S
O676        C689   1.256       .  A
O676       Al686   1.879       .  S
Al677       O690   1.933       .  S
Al677       O687   1.933       .  S
Al677       O682   1.790       .  S
O678        C685   1.261       .  A
O678       Al686   1.917       .  S
O679        C688   1.261       .  A
O679       Al686   1.921       .  S
O680       Al686   1.897       .  S
O681        C688   1.257       .  A
O682       Al686   1.786       .  S
O683        C684   1.260       .  A
C684        C833   1.432       .  S
C685        C807   1.439       .  S
C688        C886   1.435       .  S
C689        O690   1.265       .  A
C689        C838   1.433       .  S
O691        C706   1.259       .  A
O691       Al699   1.889       .  S
C692        O702   1.259       .  A
C692        O693   1.261       .  A
C692        C849   1.435       .  S
O693       Al695   1.915       .  S
O694        C696   1.254       .  A
O694       Al695   1.888       .  S
Al695       O703   1.884       .  S
Al695       O705   1.920       .  S
Al695       O704   1.790       .  S
C696        O709   1.257       .  A
C696        C818   1.432       .  S
O697        C707   1.259       .  A
O697       Al699   1.898       .  S
O698        C711   1.265       .  A
O698       Al708   1.924       .  S
Al699       O712   1.904       .  S
Al699       O709   1.913       .  S
Al699       O704   1.786       .  S
O700        C707   1.262       .  A
O700       Al708   1.921       .  S
O701        C710   1.262       .  A
O701       Al708   1.930       .  S
O702       Al708   1.897       .  S
O703        C710   1.255       .  A
O704       Al708   1.792       .  S
O705        C706   1.262       .  A
C706        C851   1.433       .  S
C707        C883   1.435       .  S
C710        C808   1.438       .  S
C711        O712   1.260       .  A
C711        C816   1.442       .  S
O713        C728   1.259       .  A
O713       Al721   1.890       .  S
C714        O724   1.259       .  A
C714        O715   1.261       .  A
C714        C819   1.435       .  S
O715       Al717   1.915       .  S
O716        C718   1.254       .  A
O716       Al717   1.888       .  S
Al717       O725   1.884       .  S
Al717       O727   1.920       .  S
Al717       O726   1.790       .  S
C718        O731   1.257       .  A
C718        C845   1.432       .  S
O719        C729   1.259       .  A
O719       Al721   1.898       .  S
O720        C733   1.265       .  A
O720       Al730   1.924       .  S
Al721       O734   1.904       .  S
Al721       O731   1.913       .  S
Al721       O726   1.785       .  S
O722        C729   1.262       .  A
O722       Al730   1.920       .  S
O723        C732   1.262       .  A
O723       Al730   1.929       .  S
O724       Al730   1.898       .  S
O725        C732   1.255       .  A
O726       Al730   1.792       .  S
O727        C728   1.262       .  A
C728        C822   1.433       .  S
C729        C862   1.434       .  S
C732        C803   1.437       .  S
C733        O734   1.260       .  A
C733        C805   1.442       .  S
O735        C750   1.257       .  A
O735       Al743   1.892       .  S
C736        O746   1.259       .  A
C736        O737   1.263       .  A
C736        C831   1.436       .  S
O737       Al739   1.922       .  S
O738        C740   1.259       .  A
O738       Al739   1.888       .  S
Al739       O747   1.895       .  S
Al739       O749   1.916       .  S
Al739       O748   1.781       .  S
C740        O753   1.264       .  A
C740        C809   1.437       .  S
O741        C751   1.259       .  A
O741       Al743   1.902       .  S
O742        C755   1.256       .  A
O742       Al752   1.879       .  S
Al743       O756   1.933       .  S
Al743       O753   1.933       .  S
Al743       O748   1.789       .  S
O744        C751   1.262       .  A
O744       Al752   1.917       .  S
O745        C754   1.261       .  A
O745       Al752   1.921       .  S
O746       Al752   1.897       .  S
O747        C754   1.257       .  A
O748       Al752   1.786       .  S
O749        C750   1.260       .  A
C750        C841   1.432       .  S
C751        C804   1.438       .  S
C754        C865   1.434       .  S
C755        O756   1.265       .  A
C755        C829   1.433       .  S
O757        C772   1.259       .  A
O757       Al765   1.889       .  S
C758        O768   1.259       .  A
C758        O759   1.261       .  A
C758        C858   1.435       .  S
O759       Al761   1.915       .  S
O760        C762   1.254       .  A
O760       Al761   1.888       .  S
Al761       O769   1.884       .  S
Al761       O771   1.919       .  S
Al761       O770   1.790       .  S
C762        O775   1.257       .  A
C762        C876   1.432       .  S
O763        C773   1.259       .  A
O763       Al765   1.898       .  S
O764        C777   1.265       .  A
O764       Al774   1.924       .  S
Al765       O778   1.904       .  S
Al765       O775   1.913       .  S
Al765       O770   1.786       .  S
O766        C773   1.262       .  A
O766       Al774   1.921       .  S
O767        C776   1.262       .  A
O767       Al774   1.930       .  S
O768       Al774   1.897       .  S
O769        C776   1.255       .  A
O770       Al774   1.792       .  S
O771        C772   1.262       .  A
C772        C859   1.433       .  S
C773        C824   1.435       .  S
C776        C801   1.438       .  S
C777        O778   1.260       .  A
C777        C806   1.442       .  S
O779        C794   1.257       .  A
O779       Al787   1.893       .  S
C780        O790   1.259       .  A
C780        O781   1.263       .  A
C780        C871   1.436       .  S
O781       Al783   1.922       .  S
O782        C784   1.259       .  A
O782       Al783   1.888       .  S
Al783       O791   1.896       .  S
Al783       O793   1.916       .  S
Al783       O792   1.782       .  S
C784        O797   1.264       .  A
C784        C811   1.436       .  S
O785        C795   1.259       .  A
O785       Al787   1.903       .  S
O786        C799   1.256       .  A
O786       Al796   1.879       .  S
Al787       O800   1.933       .  S
Al787       O797   1.933       .  S
Al787       O792   1.790       .  S
O788        C795   1.261       .  A
O788       Al796   1.917       .  S
O789        C798   1.261       .  A
O789       Al796   1.921       .  S
O790       Al796   1.897       .  S
O791        C798   1.257       .  A
O792       Al796   1.786       .  S
O793        C794   1.260       .  A
C794        C895   1.432       .  S
C795        C802   1.439       .  S
C798        C826   1.435       .  S
C799        O800   1.265       .  A
C799        C869   1.433       .  S
C801        C802   1.208       .  T
C803        C804   1.207       .  T
C805        C806   1.210       .  T
C807        C808   1.208       .  T
C809        C810   1.207       .  T
C811        C812   1.207       .  T
C813        C814   1.207       .  T
C815        C816   1.210       .  T
C817        C818   1.204       .  T
C819        C820   1.206       .  T
C821        C822   1.205       .  T
C823        C824   1.206       .  T
C825        C826   1.206       .  T
C827        C828   1.208       .  T
C829        C830   1.205       .  T
C831        C832   1.206       .  T
C833        C834   1.204       .  T
C835        C836   1.205       .  T
C837        C838   1.205       .  T
C839        C840   1.206       .  T
C841        C842   1.204       .  T
C845        C846   1.204   1_565  T
C847        C848   1.207       .  T
C849        C850   1.206       .  T
C851        C852   1.205       .  T
C853        C854   1.205       .  T
C855        C856   1.204       .  T
C857        C858   1.206       .  T
C859        C860   1.204       .  T
C861        C862   1.205       .  T
C865        C866   1.205       .  T
C867        C868   1.207       .  T
C869        C870   1.205       .  T
C871        C872   1.206       .  T
C873        C874   1.204       .  T
C875        C876   1.204   1_545  T
C879        C880   1.206       .  T
C881        C882   1.205       .  T
C883        C884   1.206       .  T
C885        C886   1.206       .  T
C889        C890   1.208       .  T
C891        C892   1.205       .  T
C893        C894   1.206       .  T
C895        C896   1.204       .  T
