geometry optimzed in LAMMPS
_audit_creation_date              2020-12-01 
_audit_creation_method            'lammps2cif' 
_symmetry_space_group_name_H-M    'P1' 
_symmetry_Int_Tables_number       1 
_symmetry_cell_setting            triclinic 
loop_ 
_symmetry_equiv_pos_as_xyz 
  x,y,z 
_cell_length_a                    35.93968298 
_cell_length_b                    35.86963507030564 
_cell_length_c                    42.369695751498035 
_cell_angle_alpha                 89.76052881671076 
_cell_angle_beta                  90.10859975486568 
_cell_angle_gamma                 89.94037859569289 
loop_ 
_atom_site_label 
_atom_site_type_symbol 
_atom_site_fract_x 
_atom_site_fract_y 
_atom_site_fract_z 
_atom_site_charge 
O1          O  0.60603605  0.68608614  0.43342692    -0.82200
C2          C  0.56257412  0.71868901  0.05788356     0.97100
O3          O  0.59612987  0.71219570  0.05042388    -0.71300
O4          O  0.61797429  0.65092738  0.02413610    -0.74900
Al5        Al  0.62002731  0.70108684  0.01080877     1.49000
C6          C  0.61690526  0.62298760  0.00656377     0.92400
O7          O  0.52595551  0.65053574  0.48220159    -0.81100
O8          O  0.53682911  0.75427047  0.44949530    -0.74700
Al9        Al  0.56597956  0.66947762  0.45850980     1.90100
O10         O  0.49767911  0.70448724  0.48774773    -0.73800
O11         O  0.57124765  0.78083768  0.50222296    -0.73600
O12         O  0.53803208  0.72374738  0.03736954    -0.79300
O13         O  0.62676040  0.75549237  0.50095386    -0.77500
O14         O  0.57335887  0.70545689  0.48677905    -1.13600
O15         O  0.64613073  0.69187037  0.47278171    -0.72800
C16         C  0.63926127  0.68743726  0.44339747     0.97900
C17         C  0.49753804  0.66909062  0.48988058     0.94300
Al18       Al  0.53794772  0.73953102  0.49288131     1.55600
O19         O  0.59736988  0.63148311  0.47697648    -0.77400
C20         C  0.60621276  0.78335385  0.50544561     0.98500
C21         C  0.52603381  0.73136025  0.42886859     0.93300
O22         O  0.53278974  0.69707337  0.43198342    -0.82800
O23         O  0.71870075  0.57133235  0.36084450    -0.82200
C24         C  0.75779386  0.53366570  0.23615687     0.97100
O25         O  0.75544064  0.56705572  0.24581922    -0.71300
O26         O  0.69191233  0.58502702  0.27217964    -0.74900
Al27       Al  0.74161796  0.58693652  0.28702768     1.49000
C28         C  0.66350142  0.58070969  0.28901821     0.92400
O29         O  0.68599456  0.49365492  0.30848333    -0.81100
O30         O  0.78942974  0.50321438  0.34116955    -0.74700
Al31       Al  0.70392994  0.53272129  0.33344537     1.90100
O32         O  0.73936562  0.46545024  0.30188284    -0.73800
O33         O  0.81514433  0.54122121  0.28864335    -0.73600
O34         O  0.76146617  0.50680525  0.25503919    -0.79300
O35         O  0.79151152  0.59604489  0.29862030    -0.77500
O36         O  0.74001204  0.54262143  0.30603038    -1.13600
O37         O  0.72694672  0.61467083  0.32465959    -0.72800
C38         C  0.72067124  0.60528477  0.35320136     0.97900
C39         C  0.70404803  0.46469679  0.30138199     0.94300
Al40       Al  0.77380555  0.50732394  0.29765182     1.55600
O41         O  0.66592742  0.56373562  0.31499348    -0.77400
C42         C  0.81868499  0.57630584  0.29041091     0.98500
C43         C  0.76665269  0.49340670  0.36247509     0.93300
O44         O  0.73226104  0.49926636  0.35915634    -0.82800
O45         O  0.53080641  0.28962657  0.18958756    -0.82200
C46         C  0.55721041  0.23579202  0.30863415     0.97100
O47         O  0.53136962  0.24119491  0.28938218    -0.71300
O48         O  0.49594204  0.27771435  0.24653883    -0.74900
Al49       Al  0.53280196  0.23753742  0.24597204     1.49000
C50         C  0.49958634  0.31272720  0.25049853     0.92400
O51         O  0.60190309  0.33903850  0.24091682    -0.81100
O52         O  0.64553327  0.27678055  0.22699365    -0.74700
Al53       Al  0.56708938  0.30893078  0.21838337     1.90100
O54         O  0.61489328  0.30581918  0.28279368    -0.73800
O55         O  0.61904510  0.21193695  0.24456497    -0.73600
O56         O  0.59097098  0.23911255  0.30018733    -0.79300
O57         O  0.56205542  0.19102805  0.24865389    -0.77500
O58         O  0.57136281  0.26830843  0.24234616    -1.13600
O59         O  0.52892005  0.23030535  0.20163709    -0.72800
C60         C  0.52145766  0.25673690  0.18297486     0.97900
C61         C  0.61539033  0.33641959  0.26827798     0.94300
Al62       Al  0.61403718  0.25911796  0.26207688     1.55600
O63         O  0.52977882  0.32895251  0.24427044    -0.77400
C64         C  0.59677905  0.18506690  0.24643985     0.98500
C65         C  0.63746731  0.28479850  0.19843128     0.93300
O66         O  0.60422166  0.29190833  0.19069514    -0.82800
O67         O  0.71682548  0.45414862  0.10748583    -0.82200
C68         C  0.76207926  0.44119996  0.48872044     0.97100
O69         O  0.75772989  0.46642257  0.50865910    -0.71300
O70         O  0.73280755  0.49245815  0.05430270    -0.74900
Al71       Al  0.76903719  0.45195372  0.05277232     1.49000
C72         C  0.69796262  0.49207957  0.04911425     0.92400
O73         O  0.66162873  0.39191766  0.05400048    -0.81100
O74         O  0.72037414  0.34112537  0.06771175    -0.74700
Al75       Al  0.69461534  0.42208302  0.07781186     1.90100
O76         O  0.69398164  0.37648352  0.01277664    -0.73800
O77         O  0.78827539  0.36337570  0.05142952    -0.73600
O78         O  0.75745734  0.40712638  0.49662772    -0.79300
O79         O  0.81202860  0.41936964  0.04783704    -0.77500
O80         O  0.73510170  0.41543004  0.05475685    -1.13600
O81         O  0.77638634  0.45321159  0.09772714    -0.72800
C82         C  0.74960515  0.46225057  0.11549423     0.97900
C83         C  0.66318487  0.37850948  0.02668907     0.94300
Al84       Al  0.74083161  0.37294109  0.03390463     1.55600
O85         O  0.67923864  0.46264810  0.05260697    -0.77400
C86         C  0.81593429  0.38426686  0.04734797     0.98500
C87         C  0.71096857  0.34852217  0.09598021     0.93300
O88         O  0.70675501  0.38190640  0.10468949    -0.82800
O89         O  0.41673718  0.28872653  0.43451137    -0.82200
C90         C  0.46346186  0.24812429  0.05733147     0.97100
O91         O  0.42966910  0.25286275  0.04917550    -0.71300
O92         O  0.40763648  0.31550172  0.02338035    -0.74900
Al93       Al  0.40600590  0.26586175  0.00901217     1.49000
C94         C  0.40681450  0.34345942  0.00565537     0.92400
O95         O  0.49368710  0.32907334  0.48506160    -0.81100
O96         O  0.48780971  0.22432365  0.45201121    -0.74700
Al97       Al  0.45494211  0.30757845  0.46048729     1.90100
O98         O  0.52513504  0.27681826  0.48989320    -0.73800
O99         O  0.45525616  0.19548082  0.50461570    -0.73600
O100        O  0.48863910  0.24698590  0.03710609    -0.79300
O101        O  0.39857078  0.21694183  0.49984048    -0.77500
O102        O  0.44880869  0.27101312  0.48841892    -1.13600
O103        O  0.37562336  0.27928063  0.47246960    -0.72800
C104        C  0.38343489  0.28423975  0.44333509     0.97900
C105        C  0.52342527  0.31221277  0.49231301     0.94300
Al106      Al  0.48607335  0.23932421  0.49507417     1.55600
O107        O  0.42105100  0.34302934  0.47880706    -0.77400
C108        C  0.42035222  0.19034091  0.50526770     0.98500
C109        C  0.49712789  0.24749139  0.43099000     0.93300
O110        O  0.48997477  0.28174612  0.43421118    -0.82800
O111        O  0.30935568  0.39421293  0.35808571    -0.82200
C112        C  0.27118546  0.44639568  0.23643727     0.97100
O113        O  0.28007767  0.41314298  0.24339854    -0.71300
O114        O  0.34239615  0.39504606  0.26985169    -0.74900
Al115      Al  0.29241227  0.38745161  0.28211280     1.49000
C116        C  0.36939748  0.39504919  0.28843721     0.92400
O117        O  0.34315057  0.47662406  0.31246734    -0.81100
O118        O  0.23985802  0.46300752  0.34423791    -0.74700
Al119      Al  0.32531811  0.43517990  0.33448887     1.90100
O120        O  0.28901413  0.50467431  0.30701090    -0.73800
O121        O  0.21422861  0.42739614  0.28840093    -0.73600
O122        O  0.26530090  0.46981578  0.25759625    -0.79300
O123        O  0.24233736  0.37317389  0.28819635    -0.77500
O124        O  0.29008442  0.42810044  0.30561706    -1.13600
O125        O  0.30578583  0.35464398  0.31836262    -0.72800
C126        C  0.30862121  0.36114576  0.34800573     0.97900
C127        C  0.32446550  0.50589610  0.30709256     0.94300
Al128      Al  0.25479566  0.46285522  0.30013809     1.55600
O129        O  0.36459614  0.40595189  0.31625846    -0.77400
C130        C  0.21380998  0.39245974  0.28246431     0.98500
C131        C  0.26341857  0.47408520  0.36455774     0.93300
O132        O  0.29724624  0.46626870  0.36109167    -0.82800
O133        O  0.49418667  0.67649322  0.19178364    -0.82200
C134        C  0.46692943  0.73848840  0.30609667     0.97100
O135        O  0.49306659  0.73248222  0.28727925    -0.71300
O136        O  0.52960716  0.69559090  0.24531856    -0.74900
Al137      Al  0.49100845  0.73348676  0.24356048     1.49000
C138        C  0.52895924  0.66124486  0.25259463     0.92400
O139        O  0.42641726  0.62959421  0.24656036    -0.81100
O140        O  0.37974222  0.68997388  0.22662936    -0.74700
Al141      Al  0.45966811  0.65832301  0.22190372     1.90100
O142        O  0.40923341  0.66663382  0.28455613    -0.73800
O143        O  0.40469104  0.75643183  0.23942276    -0.73600
O144        O  0.43317589  0.73451259  0.29747909    -0.79300
O145        O  0.46059278  0.77930260  0.24425466    -0.77500
O146        O  0.45347534  0.70109928  0.24215843    -1.13600
O147        O  0.49379625  0.73694020  0.19885970    -0.72800
C148        C  0.50241069  0.70878370  0.18252111     0.97900
C149        C  0.41062766  0.63470849  0.27258358     0.94300
Al150      Al  0.41035264  0.71117938  0.26057808     1.55600
O151        O  0.49887128  0.64320184  0.24961874    -0.77400
C152        C  0.42585214  0.78412122  0.24098167     0.98500
C153        C  0.38830725  0.67873940  0.19908988     0.93300
O154        O  0.42148640  0.66990087  0.19261147    -0.82800
O155        O  0.30546021  0.50855848  0.10317306    -0.82200
C156        C  0.26289207  0.54638697  0.48372188     0.97100
O157        O  0.26476224  0.51898932  0.50229621    -0.71300
O158        O  0.29359532  0.47687787  0.04664585    -0.74900
Al159      Al  0.25596305  0.51590792  0.04645636     1.49000
C160        C  0.32857690  0.47860778  0.04212598     0.92400
O161        O  0.36103537  0.57922318  0.05734378    -0.81100
O162        O  0.29852679  0.62527669  0.07173176    -0.74700
Al163      Al  0.32773736  0.54487686  0.07677014     1.90100
O164        O  0.33048693  0.59846215  0.01610006    -0.73800
O165        O  0.23260576  0.60341983  0.04915692    -0.73600
O166        O  0.26573369  0.57971805  0.49387965    -0.79300
O167        O  0.21192197  0.54678651  0.04188313    -0.77500
O168        O  0.28825562  0.55302092  0.05234671    -1.13600
O169        O  0.24631631  0.51049391  0.09086442    -0.72800
C170        C  0.27219362  0.50081343  0.10947449     0.97900
C171        C  0.36049039  0.59599609  0.03127675     0.94300
Al172      Al  0.28200083  0.59733613  0.03425724     1.55600
O173        O  0.34607935  0.50798881  0.04894147    -0.77400
C174        C  0.20613470  0.58151286  0.04342424     0.98500
C175        C  0.30703724  0.61499836  0.09973627     0.93300
O176        O  0.31230511  0.58100805  0.10619839    -0.82800
O177        O  0.10543232  0.17869553  0.17380146    -0.82200
C178        C  0.06328870  0.22972873  0.29473032     0.97100
O179        O  0.09693645  0.22493992  0.28607726    -0.71300
O180        O  0.11925359  0.15997683  0.26435983    -0.74900
Al181      Al  0.11933899  0.20833589  0.24615583     1.49000
C182        C  0.11884379  0.13025227  0.24898634     0.92400
O183        O  0.03057903  0.14584668  0.22913167    -0.81100
O184        O  0.03548076  0.24590516  0.18642169    -0.74700
Al185      Al  0.06835711  0.16365245  0.20217930     1.90100
O186        O  0.99982205  0.19876461  0.23015216    -0.73800
O187        O  0.07109967  0.28063825  0.23728059    -0.73600
O188        O  0.03738806  0.22984513  0.27484379    -0.79300
O189        O  0.12687017  0.25751180  0.23212682    -0.77500
O190        O  0.07596185  0.20311013  0.22664910    -1.13600
O191        O  0.14894781  0.19211369  0.20876171    -0.72800
C192        C  0.13930500  0.18390401  0.18047554     0.97900
C193        C  0.00108157  0.16362666  0.23489410     0.94300
Al194      Al  0.03923637  0.23619530  0.23138019     1.55600
O195        O  0.10240403  0.12965650  0.22268322    -0.77400
C196        C  0.10617739  0.28503964  0.23751208     0.98500
C197        C  0.02519041  0.22024459  0.16776715     0.93300
O198        O  0.03252815  0.18666285  0.17435401    -0.82800
O199        O  0.19753341  0.07926081  0.08237967    -0.82200
C200        C  0.26051919  0.03738846  0.46391650     0.97100
O201        O  0.25362860  0.07072510  0.47217838    -0.71300
O202        O  0.18586520  0.09091084  0.99128478    -0.74900
Al203      Al  0.23281679  0.09129590  0.01127031     1.49000
C204        C  0.15515170  0.08861110  0.00481394     0.92400
O205        O  0.17063718  0.00112785  0.02702726    -0.81100
O206        O  0.26597958  0.00826380  0.07469907    -0.74700
Al207      Al  0.18562164  0.04048652  0.05394787     1.90100
O208        O  0.22423818  0.97168709  0.02824384    -0.73800
O209        O  0.30451064  0.04356790  0.02773593    -0.73600
O210        O  0.26134503  0.01145989  0.48391382    -0.79300
O211        O  0.28114520  0.09986540  0.02637962    -0.77500
O212        O  0.22683502  0.04811790  0.03151067    -1.13600
O213        O  0.21491364  0.12148341  0.04724924    -0.72800
C214        C  0.20430419  0.11283710  0.07514744     0.97900
C215        C  0.18954020  0.97200322  0.02211526     0.94300
Al216      Al  0.26080285  0.01160091  0.02951579     1.55600
O217        O  0.15315920  0.07256002  0.03113462    -0.77400
C218        C  0.30881144  0.07853978  0.02642401     0.98500
C219        C  0.23886586  0.99874862  0.09198686     0.93300
O220        O  0.20624469  0.00628225  0.08344559    -0.82800
O221        O  0.03262724  0.77379051  0.41815691    -0.82200
C222        C  0.06166965  0.73933298  0.04091909     0.97100
O223        O  0.03473436  0.73972767  0.02193281    -0.71300
O224        O  0.99707438  0.76609084  0.97378184    -0.74900
Al225      Al  0.03718423  0.73058923  0.47905796     1.49000
C226        C  0.00036204  0.80410324  0.47517109     0.92400
O227        O  0.10247974  0.83334803  0.46250207    -0.81100
O228        O  0.14795974  0.77002265  0.45278985    -0.74700
Al229      Al  0.06834487  0.79880982  0.44370465     1.90100
O230        O  0.11782808  0.80459807  0.00420106    -0.73800
O231        O  0.12220143  0.70410772  0.97810365    -0.73600
O232        O  0.09504064  0.74150618  0.03095497    -0.79300
O233        O  0.06766965  0.68657601  0.48756726    -0.77500
O234        O  0.07483728  0.76173866  0.47113617    -1.13600
O235        O  0.03239303  0.71621784  0.43583732    -0.72800
C236        C  0.02327372  0.74008529  0.41518193     0.97900
C237        C  0.11708210  0.83286947  0.98656873     0.94300
Al238      Al  0.11669756  0.75451432  0.98969240     1.55600
O239        O  0.03042359  0.82040597  0.46850869    -0.77400
C240        C  0.10231021  0.68063717  0.48533930     0.98500
C241        C  0.13922519  0.77608620  0.42403434     0.93300
O242        O  0.10558226  0.78044672  0.41636744    -0.82800
O243        O  0.22873652  0.95840076  0.34285250    -0.82200
C244        C  0.25096546  0.93731116  0.21764620     0.97100
O245        O  0.25681747  0.96121961  0.23845634    -0.71300
O246        O  0.23291875  0.99603612  0.28754201    -0.74900
Al247      Al  0.26857201  0.95564526  0.28093266     1.49000
C248        C  0.19742079  0.99539956  0.28694342     0.92400
O249        O  0.16215621  0.89483166  0.30042666    -0.81100
O250        O  0.22185511  0.84624429  0.30103023    -0.74700
Al251      Al  0.20064503  0.92594778  0.31737114     1.90100
O252        O  0.18294599  0.88504137  0.25350321    -0.73800
O253        O  0.28382949  0.86674501  0.27072180    -0.73600
O254        O  0.24397522  0.90375419  0.22502450    -0.79300
O255        O  0.30958065  0.92216641  0.27018926    -0.77500
O256        O  0.23489265  0.91982099  0.28756695    -1.13600
O257        O  0.28527548  0.95629578  0.32415315    -0.72800
C258        C  0.26270713  0.96623179  0.34532333     0.97900
C259        C  0.15672237  0.88329577  0.27292968     0.94300
Al260      Al  0.23341380  0.87882822  0.26458112     1.55600
O261        O  0.17978361  0.96646869  0.29510061    -0.77400
C262        C  0.31168659  0.88718836  0.26600171     0.98500
C263        C  0.21963007  0.85253162  0.33068298     0.93300
O264        O  0.21948782  0.88559945  0.34095606    -0.82800
O265        O  0.92125563  0.79008353  0.17225593    -0.82200
C266        C  0.95805488  0.73830282  0.29379493     0.97100
O267        O  0.92493860  0.74205303  0.28356864    -0.71300
O268        O  0.90270274  0.80681426  0.26085347    -0.74900
Al269      Al  0.90455699  0.75833352  0.24307151     1.49000
C270        C  0.90733897  0.83716920  0.24659505     0.92400
O271        O  0.99571895  0.82096758  0.22812385    -0.81100
O272        O  0.99071542  0.72016921  0.18674264    -0.74700
Al273      Al  0.95791153  0.80367147  0.20106071     1.90100
O274        O  0.02606791  0.76777944  0.22983448    -0.73800
O275        O  0.95440303  0.68751406  0.23821877    -0.73600
O276        O  0.98548679  0.73904533  0.27526708    -0.79300
O277        O  0.89864023  0.70883914  0.22880244    -0.77500
O278        O  0.94909375  0.76423505  0.22537303    -1.13600
O279        O  0.87680653  0.77389351  0.20518524    -0.72800
C280        C  0.88763696  0.78269147  0.17749055     0.97900
C281        C  0.02513898  0.80293002  0.23337873     0.94300
Al282      Al  0.98585931  0.73123018  0.23163110     1.55600
O283        O  0.92528153  0.83818539  0.22121709    -0.77400
C284        C  0.91960136  0.68244373  0.23691723     0.98500
C285        C  0.99949214  0.74569725  0.16720212     0.93300
O286        O  0.99236106  0.77927384  0.17394850    -0.82800
O287        O  0.81931709  0.88870519  0.08738548    -0.82200
C288        C  0.76329338  0.93681489  0.46953477     0.97100
O289        O  0.76802509  0.90298555  0.47755576    -0.71300
O290        O  0.83459770  0.88010628  0.99519108    -0.74900
Al291      Al  0.78763112  0.87947444  0.01527396     1.49000
C292        C  0.86471493  0.87874549  0.01016547     0.92400
O293        O  0.85464921  0.96494422  0.03371392    -0.79500
O294        O  0.75636243  0.96286030  0.07751009    -0.74700
Al295      Al  0.83560740  0.92665425  0.05974528     1.90100
O296        O  0.80244562  0.99754391  0.03236964    -0.73800
O297        O  0.71777904  0.92913469  0.03015403    -0.73600
O298        O  0.76667321  0.96236176  0.48927160    -0.79300
O299        O  0.74026565  0.87240908  0.03191392    -0.77500
O300        O  0.79519103  0.92185499  0.03576415    -1.13600
O301        O  0.80562707  0.84801817  0.05019230    -0.72800
C302        C  0.81381964  0.85550707  0.07876947     0.97900
C303        C  0.83744262  0.99489861  0.02795646     0.94300
Al304      Al  0.76329309  0.95969966  0.03280999     1.55600
O305        O  0.86682779  0.89246871  0.03741926    -0.77400
C306        C  0.71286533  0.89408206  0.03115551     0.98500
C307        C  0.78286650  0.97096305  0.09584877     0.93300
O308        O  0.81562157  0.96209182  0.08864337    -0.82800
O309        O  0.98535537  0.20054407  0.41883013    -0.82200
C310        C  0.96368921  0.22799438  0.04163335     0.97100
O311        O  0.98849117  0.22636958  0.02091014    -0.71300
O312        O  0.02215599  0.20080219  0.97145411    -0.74900
Al313      Al  0.98133130  0.24428186  0.47899662     1.49000
C314        C  0.02241823  0.17347653  0.47560306     0.92400
O315        O  0.92239180  0.13628348  0.46478579    -0.81100
O316        O  0.87220526  0.19565213  0.45878536    -0.74700
Al317      Al  0.95289582  0.17372335  0.44556491     1.90100
O318        O  0.90734420  0.16121893  0.00950248    -0.73800
O319        O  0.89679197  0.26077385  0.98171349    -0.73600
O320        O  0.92948499  0.22569666  0.03381114    -0.79300
O321        O  0.94772303  0.28582869  0.48779197    -0.77500
O322        O  0.94567313  0.21002295  0.47333664    -1.13600
O323        O  0.98300872  0.25832987  0.43498985    -0.72800
C324        C  0.99315299  0.23441431  0.41486530     0.97900
C325        C  0.90720650  0.13320223  0.99174717     0.94300
Al326      Al  0.90460081  0.21093915  0.99418194     1.55600
O327        O  0.99348038  0.15501641  0.46912213    -0.77400
C328        C  0.91260545  0.28857409  0.48967850     0.98500
C329        C  0.87938238  0.19091133  0.42949397     0.93300
O330        O  0.91271501  0.18994072  0.42007018    -0.82800
O331        O  0.80138557  0.00421041  0.34145690    -0.82200
C332        C  0.76686133  0.03264308  0.22003710     0.97100
O333        O  0.76169450  0.00809227  0.24047534    -0.71300
O334        O  0.79050717  0.97064359  0.28610826    -0.74900
Al335      Al  0.75445590  0.01141006  0.28324184     1.49000
C336        C  0.82574682  0.97022572  0.28288967     0.92400
O337        O  0.86299629  0.07119383  0.29643945    -0.81100
O338        O  0.79958738  0.11960332  0.30513774    -0.74700
Al339      Al  0.82658176  0.03860084  0.31490630     1.90100
O340        O  0.83629699  0.08776573  0.25292277    -0.73800
O341        O  0.73673681  0.09993147  0.27642066    -0.73600
O342        O  0.77455945  0.06600879  0.22770329    -0.79300
O343        O  0.71180793  0.04449192  0.27563594    -0.77500
O344        O  0.78880200  0.04694166  0.28844578    -1.13600
O345        O  0.74299817  0.00932862  0.32724537    -0.72800
C346        C  0.76750342  0.99782470  0.34638351     0.97900
C347        C  0.86449253  0.08734830  0.27013000     0.94300
Al348      Al  0.78684800  0.08961526  0.26749313     1.55600
O349        O  0.84454219  0.99920323  0.28917751    -0.77400
C350        C  0.70899883  0.07948207  0.27186973     0.98500
C351        C  0.80572920  0.11088916  0.33404152     0.93300
O352        O  0.81089358  0.07721359  0.34201388    -0.82800
C353        C  0.82462018  0.15233292  0.41444451    -0.06200
C354        C  0.84963305  0.18082542  0.40626078    -0.00300
C355        C  0.85044826  0.19315465  0.37434749    -0.08800
C356        C  0.83210921  0.17196378  0.35097233    -0.06200
C357        C  0.81152564  0.14001241  0.35881472    -0.00300
C358        C  0.80431751  0.13277156  0.39124221    -0.08700
C359        C  0.77671189  0.10338416  0.40179338     0.61600
H360        H  0.82271451  0.14358334  0.43891346     0.12300
H361        H  0.83651471  0.17857220  0.32629893     0.12300
C362        C  0.87205809  0.22746164  0.36458318     0.61900
F363        F  0.75991296  0.11398300  0.42974286    -0.23300
F364        F  0.79483124  0.06984887  0.40657427    -0.20600
F365        F  0.74890591  0.09873202  0.37949954    -0.20300
F366        F  0.90925209  0.21855417  0.36138708    -0.20400
F367        F  0.86797806  0.25513040  0.38699807    -0.20700
F368        F  0.85922896  0.24144950  0.33604460    -0.23400
C369        C  0.87538587  0.04992360  0.04118770    -0.06200
C370        C  0.85883206  0.02792208  0.01788825    -0.00300
C371        C  0.86153822  0.03887372  0.48638674    -0.08800
C372        C  0.87938352  0.07270142  0.47889981    -0.06200
C373        C  0.89215505  0.09674604  0.00232868    -0.00300
C374        C  0.89056216  0.08513320  0.03438466    -0.08700
C375        C  0.90340891  0.10956044  0.06157567     0.61600
H376        H  0.87571554  0.03959024  0.06496159     0.12300
H377        H  0.88071070  0.08166983  0.45444032     0.12300
C378        C  0.84642259  0.01428673  0.46039811     0.61900
F379        F  0.90377581  0.09036370  0.08997821    -0.23300
F380        F  0.87955820  0.13959289  0.06464954    -0.20600
F381        F  0.93901833  0.12235174  0.05634270    -0.20300
F382        F  0.80812990  0.01399468  0.46184157    -0.20400
F383        F  0.85979817  0.97832105  0.46404793    -0.20700
F384        F  0.85675068  0.02689522  0.43076874    -0.23400
C385        C  0.77201411  0.92740895  0.41259848    -0.06200
C386        C  0.75472804  0.94763578  0.43660465    -0.00300
C387        C  0.73442464  0.98069708  0.42869605    -0.08800
C388        C  0.73724294  0.99504833  0.39801016    -0.06200
C389        C  0.75796036  0.97684580  0.37502695    -0.00300
C390        C  0.77401575  0.94150326  0.38172433    -0.08700
C391        C  0.79393186  0.91905690  0.35663639     0.61600
H392        H  0.78655504  0.90189279  0.41867531     0.12300
H393        H  0.72460278  0.02174182  0.39234725     0.12300
C394        C  0.71050525  0.00300477  0.45135800     0.61900
F395        F  0.80213421  0.88329515  0.36694012    -0.23300
F396        F  0.82698709  0.93618077  0.34854540    -0.20600
F397        F  0.77140137  0.91614211  0.33033643    -0.20300
F398        F  0.72896985  0.03531216  0.45964129    -0.20400
F399        F  0.70151253  0.98366597  0.47834405    -0.20700
F400        F  0.67731274  0.01253494  0.43675834    -0.23400
C401        C  0.74585065  0.97961283  0.14449655    -0.06200
C402        C  0.77620002  0.99064515  0.12606596    -0.00300
C403        C  0.80007139  0.01933477  0.13731647    -0.08800
C404        C  0.79430780  0.03395011  0.16747044    -0.06200
C405        C  0.76584423  0.02089493  0.18677598    -0.00300
C406        C  0.74006744  0.99418891  0.17489362    -0.08700
C407        C  0.70634001  0.98112934  0.19363343     0.61600
H408        H  0.72755625  0.95819377  0.13540759     0.12300
H409        H  0.81334884  0.05449646  0.17692272     0.12300
C410        C  0.83098462  0.03548437  0.11750302     0.61900
F411        F  0.68169473  0.96140107  0.17491485    -0.23300
F412        F  0.68744931  0.01138223  0.20576142    -0.20600
F413        F  0.71706470  0.95800243  0.21812073    -0.20300
F414        F  0.81638508  0.04593031  0.08860895    -0.20400
F415        F  0.85892886  0.00934006  0.11386732    -0.20700
F416        F  0.84668602  0.06680534  0.13112741    -0.23400
C417        C  0.82728974  0.80663750  0.15685889    -0.06200
C418        C  0.86119092  0.78848288  0.15082632    -0.00300
C419        C  0.87266244  0.78380581  0.11891014    -0.08800
C420        C  0.85344301  0.80303461  0.09492631    -0.06200
C421        C  0.82271564  0.82557301  0.10170876    -0.00300
C422        C  0.80751291  0.82493919  0.13250435    -0.08700
C423        C  0.77204858  0.84578446  0.14015993     0.61600
H424        H  0.81807233  0.80955853  0.18106365     0.12300
H425        H  0.86463326  0.80335799  0.07117973     0.12300
C426        C  0.90709681  0.76168905  0.10995886     0.61900
F427        F  0.75499167  0.83067743  0.16654331    -0.23300
F428        F  0.74723907  0.84346006  0.11522290    -0.20600
F429        F  0.78005115  0.88282345  0.14591756    -0.20300
F430        F  0.90463597  0.74910904  0.07917500    -0.20400
F431        F  0.91096510  0.73084876  0.12940387    -0.20700
F432        F  0.93837458  0.78393929  0.11241057    -0.23400
C433        C  0.84988627  0.87351178  0.24964864    -0.06200
C434        C  0.88758741  0.87085248  0.25742389    -0.00300
C435        C  0.90527283  0.90071558  0.27299410    -0.08800
C436        C  0.88380720  0.93206815  0.28143595    -0.06200
C437        C  0.84574019  0.93521214  0.27351803    -0.00300
C438        C  0.82875687  0.90553010  0.25642006    -0.08700
C439        C  0.78979596  0.90829329  0.24276305     0.61600
H440        H  0.83743045  0.85047148  0.23698583     0.12300
H441        H  0.89693776  0.95466260  0.29411359     0.12300
C442        C  0.94657485  0.89950150  0.28040476     0.61900
F443        F  0.78119238  0.87828346  0.22363877    -0.23300
F444        F  0.78749761  0.94005634  0.22440667    -0.20600
F445        F  0.76361620  0.90934960  0.26656077    -0.20300
F446        F  0.96660993  0.89655282  0.25270937    -0.20400
F447        F  0.95440666  0.86912724  0.29938921    -0.20700
F448        F  0.95831486  0.93126403  0.29597183    -0.23400
C449        C  0.12044030  0.84794830  0.23373841    -0.06200
C450        C  0.12113657  0.86502459  0.26355933    -0.00300
C451        C  0.08895644  0.86250822  0.28314576    -0.08800
C452        C  0.05838074  0.84135794  0.27248288    -0.06200
C453        C  0.05868989  0.82353251  0.24315799    -0.00300
C454        C  0.08951026  0.82806173  0.22294446    -0.08700
C455        C  0.08822435  0.81531235  0.18901103     0.61600
H456        H  0.14432132  0.85065528  0.21839654     0.12300
H457        H  0.03379931  0.83837950  0.28703461     0.12300
C458        C  0.08616322  0.88181300  0.31493316     0.61900
F459        F  0.12124682  0.82206883  0.17319351    -0.23300
F460        F  0.06031888  0.83501374  0.17393972    -0.20600
F461        F  0.08114459  0.77750342  0.18754346    -0.20300
F462        F  0.09361887  0.91941576  0.31149835    -0.20400
F463        F  0.11111262  0.86600994  0.33598326    -0.20700
F464        F  0.05092155  0.87863025  0.32782757    -0.23400
C465        C  0.93167797  0.88039795  0.50083925    -0.06200
C466        C  0.89777761  0.86021577  0.99679497    -0.00300
C467        C  0.89662163  0.82377297  0.98403772    -0.08800
C468        C  0.93034094  0.80622614  0.97636568    -0.06200
C469        C  0.96596387  0.82595154  0.48237775    -0.00300
C470        C  0.96578912  0.86405777  0.49194411    -0.08700
C471        C  0.00085033  0.88779229  0.49292739     0.61600
H472        H  0.93095761  0.90879431  0.50941591     0.12300
H473        H  0.92989890  0.77818914  0.96701642     0.12300
C474        C  0.86032274  0.80270681  0.97962860     0.61900
F475        F  0.99382378  0.92350660  0.50370968    -0.23300
F476        F  0.01552677  0.89101514  0.46287969    -0.20600
F477        F  0.02684543  0.87181425  0.51290692    -0.20300
F478        F  0.83799221  0.82132382  0.95812410    -0.20400
F479        F  0.84202645  0.79968832  0.00816715    -0.20700
F480        F  0.86605235  0.76697923  0.96836005    -0.23400
C481        C  0.19788148  0.80739028  0.40872201    -0.06200
C482        C  0.16834260  0.78412590  0.39982475    -0.00300
C483        C  0.16421010  0.77508558  0.36731946    -0.08800
C484        C  0.18544877  0.79471040  0.34468698    -0.06200
C485        C  0.21115454  0.82210936  0.35368037    -0.00300
C486        C  0.22017750  0.82550093  0.38614450    -0.08700
C487        C  0.25151491  0.85009035  0.39756750     0.61600
H488        H  0.20210288  0.81354220  0.43346950     0.12300
H489        H  0.17948824  0.79118066  0.31980905     0.12300
C490        C  0.13766857  0.74496354  0.35640537     0.61900
F491        F  0.26855062  0.83427044  0.42371764    -0.23300
F492        F  0.23759293  0.88468455  0.40576088    -0.20600
F493        F  0.27828630  0.85412748  0.37439792    -0.20300
F494        F  0.10125461  0.75675842  0.35936496    -0.20400
F495        F  0.14328365  0.71315096  0.37435321    -0.20700
F496        F  0.14352958  0.73580165  0.32507798    -0.23400
C497        C  0.03583639  0.70568029  0.08807012    -0.06200
C498        C  0.05279115  0.73779421  0.07518430    -0.00300
C499        C  0.05462506  0.77025786  0.09353629    -0.08800
C500        C  0.03733655  0.77054324  0.12309627    -0.06200
C501        C  0.01954388  0.73915943  0.13638870    -0.00300
C502        C  0.02000173  0.70541724  0.11886587    -0.08700
C503        C  0.00330084  0.66978093  0.13196026     0.61600
H504        H  0.03445423  0.68099584  0.07347913     0.12300
H505        H  0.03644497  0.79655049  0.13552196     0.12300
C506        C  0.07316630  0.80527626  0.08111878     0.61900
F507        F  0.00546360  0.64079517  0.11055396    -0.23300
F508        F  0.96622042  0.67526774  0.13921780    -0.20600
F509        F  0.02241221  0.65919502  0.15891175    -0.20300
F510        F  0.05516458  0.81710989  0.05409041    -0.20400
F511        F  0.10989846  0.79764934  0.07424133    -0.20700
F512        F  0.07242990  0.83407857  0.10275866    -0.23400
C513        C  0.99373234  0.70536260  0.33522362    -0.06200
C514        C  0.96624487  0.73203352  0.32768949    -0.00300
C515        C  0.95189539  0.75502881  0.35182010    -0.08800
C516        C  0.96962578  0.75445640  0.38140747    -0.06200
C517        C  0.99987125  0.73068075  0.38773104    -0.00300
C518        C  0.01022675  0.70366223  0.36535168    -0.08700
C519        C  0.03897529  0.67401503  0.37307059     0.61600
H520        H  0.00320995  0.68674171  0.31684118     0.12300
H521        H  0.96126949  0.77404055  0.39947518     0.12300
C522        C  0.91961177  0.78140943  0.34601621     0.61900
F523        F  0.02575938  0.65167711  0.39724375    -0.23300
F524        F  0.07190058  0.69030969  0.38256418    -0.20600
F525        F  0.04644477  0.65156685  0.34735445    -0.20300
F526        F  0.88851094  0.76126565  0.33723625    -0.20400
F527        F  0.92864322  0.80623181  0.32233129    -0.20700
F528        F  0.91069069  0.80172511  0.37267761    -0.23400
C529        C  0.12036474  0.90216116  0.98646596    -0.06200
C530        C  0.13628150  0.86804804  0.99588731    -0.00300
C531        C  0.17137959  0.86840390  0.01141847    -0.08800
C532        C  0.18803323  0.90291928  0.01834319    -0.06200
C533        C  0.17092287  0.93711712  0.01098591    -0.00300
C534        C  0.13707287  0.93676604  0.99351092    -0.08700
C535        C  0.11707282  0.97353956  0.48623091     0.61600
H536        H  0.09327756  0.90238195  0.47906617     0.12300
H537        H  0.21469148  0.90332945  0.03021046     0.12300
C538        C  0.19209968  0.83277691  0.01999243     0.61900
F539        F  0.08678819  0.96587708  0.46707460    -0.23300
F540        F  0.14124021  0.99576538  0.46910462    -0.20600
F541        F  0.10384003  0.99205804  0.00612079    -0.20300
F542        F  0.19572816  0.81052994  0.99362577    -0.20400
F543        F  0.17300637  0.81367209  0.04319952    -0.20700
F544        F  0.22750817  0.83985306  0.03140714    -0.23400
C545        C  0.09034597  0.16369686  0.46927327    -0.06200
C546        C  0.05703939  0.15316617  0.48387168    -0.00300
C547        C  0.05311124  0.10913177  0.99497650    -0.08800
C548        C  0.08694406  0.09112395  0.00126389    -0.06200
C549        C  0.12113187  0.10587575  0.99122732    -0.00300
C550        C  0.12419528  0.14506172  0.47556130    -0.08700
C551        C  0.15963097  0.16062821  0.46126790     0.61600
H552        H  0.08961219  0.18705464  0.45302604     0.12300
H553        H  0.08701984  0.06574732  0.01518073     0.12300
C554        C  0.01750757  0.09342696  0.00888298     0.61900
F555        F  0.15329084  0.19305490  0.44420750    -0.23300
F556        F  0.17469155  0.13486304  0.44095748    -0.20600
F557        F  0.18488885  0.16892014  0.48485323    -0.20300
F558        F  0.02416712  0.06359032  0.02895704    -0.20400
F559        F  0.99999119  0.12089981  0.02607150    -0.20700
F560        F  0.99424053  0.08120642  0.98504689    -0.23400
C561        C  0.24890546  0.02155136  0.37604915    -0.06200
C562        C  0.27280714  0.99103471  0.37169448    -0.00300
C563        C  0.29846773  0.98149028  0.39559057    -0.08800
C564        C  0.29551366  0.99963915  0.42495178    -0.06200
C565        C  0.26814217  0.02710504  0.43058993    -0.00300
C566        C  0.24567546  0.03950198  0.40522118    -0.08700
C567        C  0.21640275  0.06936492  0.40938441     0.61600
H568        H  0.23026062  0.02911214  0.35692846     0.12300
H569        H  0.31317597  0.99091752  0.44434963     0.12300
C570        C  0.32738134  0.95138722  0.39055650     0.61900
F571        F  0.23357204  0.10220458  0.41809626    -0.23300
F572        F  0.19138249  0.05833158  0.43235225    -0.20600
F573        F  0.19659550  0.07609846  0.38186757    -0.20300
F574        F  0.34937136  0.96062939  0.36495270    -0.20400
F575        F  0.31005574  0.91784506  0.38478327    -0.20700
F576        F  0.35027493  0.94697736  0.41663246    -0.23400
C577        C  0.22299327  0.93740644  0.16460521    -0.06200
C578        C  0.25163925  0.94956319  0.18428939    -0.00300
C579        C  0.27885655  0.97464751  0.17229267    -0.08800
C580        C  0.27454796  0.98891398  0.14149559    -0.06200
C581        C  0.24422629  0.97891825  0.12254946    -0.00300
C582        C  0.21869035  0.95147768  0.13383689    -0.08700
C583        C  0.18738937  0.93607628  0.11360375     0.61600
H584        H  0.20290125  0.91785792  0.17408380     0.12300
H585        H  0.29404191  0.00935787  0.13250723     0.12300
C586        C  0.31236699  0.98658323  0.19169466     0.61900
F587        F  0.17143967  0.90461952  0.12695314    -0.23300
F588        F  0.20132978  0.92602832  0.08458530    -0.20600
F589        F  0.15964910  0.96243557  0.10976984    -0.20300
F590        F  0.32873920  0.95587091  0.20586972    -0.20400
F591        F  0.30147668  0.01161245  0.21461832    -0.20700
F592        F  0.33908997  0.00369060  0.17313527    -0.23400
C593        C  0.93251644  0.16038330  0.23949698    -0.06200
C594        C  0.96695557  0.14318492  0.24524358    -0.00300
C595        C  0.96745222  0.10741784  0.26004701    -0.08800
C596        C  0.93329676  0.09025145  0.26761397    -0.06200
C597        C  0.89900092  0.10680461  0.26015055    -0.00300
C598        C  0.89850978  0.14257487  0.24560760    -0.08700
C599        C  0.86255638  0.16258902  0.23683687     0.61600
H600        H  0.93231701  0.18811151  0.22966257     0.12300
H601        H  0.93304304  0.06318010  0.27902514     0.12300
C602        C  0.00343564  0.08744801  0.26866763     0.61900
F603        F  0.86890883  0.19814032  0.22518496    -0.23300
F604        F  0.84016403  0.16600084  0.26311429    -0.20600
F605        F  0.84403835  0.14287252  0.21364995    -0.20300
F606        F  0.02616836  0.11090654  0.28593063    -0.20400
F607        F  0.02159379  0.07630571  0.24154658    -0.20700
F608        F  0.99705447  0.05589607  0.28680330    -0.23400
C609        C  0.04802708  0.21952297  0.38320846    -0.06200
C610        C  0.01718191  0.24315204  0.38750347    -0.00300
C611        C  0.00660841  0.26763646  0.36301593    -0.08800
C612        C  0.02375283  0.26346903  0.33331380    -0.06200
C613        C  0.05233928  0.23705009  0.32808758    -0.00300
C614        C  0.06621920  0.21640173  0.35400163    -0.08700
C615        C  0.09844701  0.18961791  0.35049739     0.61600
H616        H  0.05632462  0.20163942  0.40264943     0.12300
H617        H  0.01434962  0.28036811  0.31360785     0.12300
C618        C  0.97743044  0.29752916  0.36823625     0.61900
F619        F  0.10685013  0.17151628  0.37855219    -0.23300
F620        F  0.12968438  0.20918103  0.34110488    -0.20600
F621        F  0.08963608  0.16291816  0.32826327    -0.20300
F622        F  0.98986093  0.32181461  0.39121545    -0.20400
F623        F  0.94437858  0.28175246  0.37805417    -0.20700
F624        F  0.97050168  0.31787327  0.34100859    -0.23400
C625        C  0.95705084  0.21221561  0.09868394    -0.06200
C626        C  0.97585096  0.23219804  0.07520831    -0.00300
C627        C  0.00742081  0.25400046  0.08404030    -0.08800
C628        C  0.02169772  0.25097068  0.11502989    -0.06200
C629        C  0.00482130  0.22817619  0.13768654    -0.00300
C630        C  0.97064674  0.21032724  0.12992616    -0.08700
C631        C  0.94751553  0.19111361  0.15495703     0.61600
H632        H  0.93224085  0.19695952  0.09213013     0.12300
H633        H  0.04723350  0.26515388  0.12134640     0.12300
C634        C  0.02627850  0.28063150  0.06117081     0.61900
F635        F  0.91312498  0.18013740  0.14350600    -0.23300
F636        F  0.94156181  0.21590165  0.17927574    -0.20600
F637        F  0.96561124  0.15977619  0.16622479    -0.20300
F638        F  0.99983542  0.30078754  0.04454550    -0.20400
F639        F  0.04836638  0.26092580  0.04040320    -0.20700
F640        F  0.04866842  0.30594233  0.07686273    -0.23400
C641        C  0.21240020  0.13577014  0.13020851    -0.06200
C642        C  0.19706289  0.14155959  0.09998296    -0.00300
C643        C  0.16943257  0.16949770  0.09628982    -0.08800
C644        C  0.15451504  0.18658235  0.12344576    -0.06200
C645        C  0.16643831  0.17712422  0.15414315    -0.00300
C646        C  0.19823666  0.15389358  0.15731721    -0.08700
C647        C  0.21606332  0.14678768  0.18915742     0.61600
H648        H  0.23419615  0.11507834  0.13270169     0.12300
H649        H  0.13100315  0.20531526  0.12104796     0.12300
C650        C  0.15347251  0.17911852  0.06416720     0.61900
F651        F  0.19149766  0.12801041  0.20849198    -0.23300
F652        F  0.22561899  0.18046134  0.20274820    -0.20600
F653        F  0.24809866  0.12552729  0.18664770    -0.20300
F654        F  0.13528764  0.14849660  0.05199736    -0.20400
F655        F  0.18190170  0.18966836  0.04414097    -0.20700
F656        F  0.12828067  0.20830009  0.06561066    -0.23400
C657        C  0.12652239  0.06141791  0.24942694    -0.06200
C658        C  0.13859850  0.09616396  0.26080302    -0.00300
C659        C  0.17081998  0.09735216  0.28055883    -0.08800
C660        C  0.18886603  0.06371314  0.28850042    -0.06200
C661        C  0.17636479  0.02923049  0.27743888    -0.00300
C662        C  0.14495525  0.02791012  0.25713335    -0.08700
C663        C  0.13164767  0.99157157  0.24260541     0.61600
H664        H  0.10234966  0.06066554  0.23415604     0.12300
H665        H  0.21306576  0.06397214  0.30376207     0.12300
C666        C  0.18711140  0.13354895  0.29294989     0.61900
F667        F  0.10474667  0.99749525  0.21969555    -0.23300
F668        F  0.11633490  0.96905608  0.26567055    -0.20600
F669        F  0.16116973  0.97322540  0.22858383    -0.20300
F670        F  0.16233828  0.14987620  0.31347449    -0.20400
F671        F  0.19457643  0.15765203  0.26825660    -0.20700
F672        F  0.22008894  0.12790664  0.30924719    -0.23400
C673        C  0.16016772  0.59248116  0.00111969    -0.06200
C674        C  0.16990860  0.59768434  0.03307067    -0.00300
C675        C  0.15040740  0.62481765  0.05075952    -0.08800
C676        C  0.12452709  0.64804717  0.03517886    -0.06200
C677        C  0.11787100  0.64551712  0.00253785    -0.00300
C678        C  0.13486861  0.61648006  0.98539540    -0.08700
C679        C  0.12719897  0.61202094  0.95045617     0.61600
H680        H  0.17521245  0.57169575  0.98772330     0.12300
H681        H  0.10517702  0.66413470  0.54575475     0.12300
C682        C  0.15651093  0.63115771  0.08574115     0.61900
F683        F  0.14511076  0.58113110  0.93817977    -0.23300
F684        F  0.13928623  0.64325664  0.93422773    -0.20600
F685        F  0.10168790  0.61675702  0.43654861    -0.20300
F686        F  0.17145882  0.66625222  0.09026072    -0.20400
F687        F  0.15018475  0.58765216  0.59518417    -0.20700
F688        F  0.12443966  0.64457835  0.59696625    -0.23400
C689        C  0.37728420  0.82451911  0.21965388    -0.06200
C690        C  0.40717638  0.82130501  0.24065614    -0.00300
C691        C  0.40945338  0.84692593  0.26612818    -0.08800
C692        C  0.37888880  0.87073774  0.27232540    -0.06200
C693        C  0.34634738  0.86914728  0.25412994    -0.00300
C694        C  0.34645982  0.84730814  0.22606204    -0.08700
C695        C  0.31405281  0.84675927  0.20300211     0.61600
H696        H  0.37644310  0.80560209  0.19978534     0.12300
H697        H  0.37897874  0.88848012  0.29294720     0.12300
C698        C  0.44266606  0.84750956  0.28792115     0.61900
F699        F  0.32210914  0.82657547  0.17605805    -0.23300
F700        F  0.30584155  0.88266909  0.19362198    -0.20600
F701        F  0.28332829  0.83050820  0.21683285    -0.20300
F702        F  0.47472353  0.85211044  0.27035669    -0.20400
F703        F  0.44423376  0.81450402  0.30454196    -0.20700
F704        F  0.44070016  0.87633180  0.30949179    -0.23400
C705        C  0.32793743  0.65208526  0.18092588    -0.06200
C706        C  0.35950464  0.67375724  0.17409132    -0.00300
C707        C  0.36612965  0.68435698  0.14224538    -0.08800
C708        C  0.34500238  0.66774839  0.11806472    -0.06200
C709        C  0.31634818  0.64243771  0.12473591    -0.00300
C710        C  0.30558098  0.63705202  0.15665908    -0.08700
C711        C  0.27130377  0.61504877  0.16603896     0.61600
H712        H  0.32186075  0.64500418  0.20528213     0.12300
H713        H  0.35288273  0.67254929  0.09368775     0.12300
C714        C  0.39610563  0.71180199  0.13248678     0.61900
F715        F  0.25020965  0.63594244  0.18678672    -0.23300
F716        F  0.28189156  0.58228540  0.18083995    -0.20600
F717        F  0.24900466  0.60655725  0.14040591    -0.20300
F718        F  0.42501768  0.69274320  0.11831550    -0.20400
F719        F  0.40989442  0.73199718  0.15766228    -0.20700
F720        F  0.38142703  0.73704065  0.11101909    -0.23400
C721        C  0.14775409  0.36763745  0.28382578    -0.06200
C722        C  0.18098035  0.37293972  0.26703665    -0.00300
C723        C  0.18389377  0.35529380  0.23682040    -0.08800
C724        C  0.15644633  0.32989586  0.22692227    -0.06200
C725        C  0.12529259  0.32143088  0.24511889    -0.00300
C726        C  0.11966907  0.34248365  0.27327274    -0.08700
C727        C  0.08663880  0.33545522  0.29429362     0.61600
H728        H  0.14510899  0.38124777  0.30647705     0.12300
H729        H  0.16013837  0.31452270  0.20519485     0.12300
C730        C  0.21502787  0.36357513  0.21395214     0.61900
F731        F  0.08326263  0.36235587  0.31744988    -0.23300
F732        F  0.09147384  0.30150866  0.30888118    -0.20600
F733        F  0.05413606  0.33550109  0.27679505    -0.20300
F734        F  0.24843677  0.35092114  0.22584023    -0.20400
F735        F  0.21585552  0.40136043  0.20869463    -0.20700
F736        F  0.20989505  0.34675248  0.18489450    -0.23400
C737        C  0.35230448  0.60794671  0.29232804    -0.06200
C738        C  0.39050841  0.60346288  0.28699598    -0.00300
C739        C  0.40718352  0.56819325  0.29081700    -0.08800
C740        C  0.38442918  0.53780359  0.29820036    -0.06200
C741        C  0.34546494  0.54121410  0.30143859    -0.00300
C742        C  0.32907524  0.57735501  0.29917741    -0.08700
C743        C  0.28755473  0.58415798  0.30282427     0.61600
H744        H  0.34043301  0.63546367  0.28902680     0.12300
H745        H  0.39729179  0.51060761  0.30017968     0.12300
C746        C  0.44878855  0.56240159  0.28652707     0.61900
F747        F  0.27867136  0.62169976  0.30106002    -0.23300
F748        F  0.27560428  0.57113853  0.33181820    -0.20600
F749        F  0.26846317  0.56625502  0.27897332    -0.20300
F750        F  0.46828096  0.58962407  0.30262371    -0.20400
F751        F  0.45768996  0.56411401  0.25483331    -0.20700
F752        F  0.46025160  0.52805771  0.29799619    -0.23400
C753        C  0.28834691  0.43965778  0.18047714    -0.06200
C754        C  0.26692552  0.45812488  0.20304655    -0.00300
C755        C  0.24045629  0.48539715  0.19291364    -0.08800
C756        C  0.24097631  0.49724114  0.16121512    -0.06200
C757        C  0.26525835  0.48116147  0.13947008    -0.00300
C758        C  0.28717575  0.45000321  0.14861232    -0.08700
C759        C  0.30743182  0.42634292  0.12455734     0.61600
H760        H  0.30641544  0.41716797  0.18802012     0.12300
H761        H  0.22366944  0.52033201  0.15355876     0.12300
C762        C  0.21109071  0.50143576  0.21479553     0.61900
F763        F  0.32102917  0.39364089  0.13771460    -0.23300
F764        F  0.33715927  0.44550794  0.11179775    -0.20600
F765        F  0.28264192  0.41682437  0.10101247    -0.20300
F766        F  0.22730294  0.52589697  0.23578279    -0.20400
F767        F  0.19364406  0.47301934  0.23122899    -0.20700
F768        F  0.18388611  0.52067931  0.19821210    -0.23400
C769        C  0.28123070  0.52772173  0.39747539    -0.06200
C770        C  0.25479942  0.49947899  0.39139748    -0.00300
C771        C  0.22619149  0.49325412  0.41353381    -0.08800
C772        C  0.22778108  0.51221956  0.44269463    -0.06200
C773        C  0.25661370  0.53750007  0.44993560    -0.00300
C774        C  0.28271626  0.54684692  0.42638742    -0.08700
C775        C  0.31363221  0.57470414  0.43257715     0.61600
H776        H  0.30259175  0.53292120  0.38001926     0.12300
H777        H  0.20765202  0.50581211  0.46091647     0.12300
C778        C  0.19538474  0.46562032  0.40699126     0.61900
F779        F  0.33607929  0.57984125  0.40639067    -0.23300
F780        F  0.33578829  0.56222965  0.45714508    -0.20600
F781        F  0.29839772  0.60883023  0.44041307    -0.20300
F782        F  0.21030615  0.43068599  0.40188241    -0.20400
F783        F  0.17582800  0.47682390  0.38045587    -0.20700
F784        F  0.17067348  0.46306337  0.43192072    -0.23400
C785        C  0.35885064  0.11771926  0.04823976    -0.06200
C786        C  0.34605617  0.09617529  0.02310186    -0.00300
C787        C  0.36880242  0.09997170  0.49370463    -0.08800
C788        C  0.39564408  0.12841070  0.48975874    -0.06200
C789        C  0.40053276  0.15235528  0.01314957    -0.00300
C790        C  0.38587136  0.14569896  0.04389468    -0.08700
C791        C  0.39633657  0.16967112  0.07180206     0.61600
H792        H  0.34505032  0.11468216  0.07081860     0.12300
H793        H  0.40797488  0.13333804  0.46680685     0.12300
C794        C  0.35793372  0.07668860  0.46548968     0.61900
F795        F  0.38387387  0.15467605  0.10003523    -0.23300
F796        F  0.38066401  0.20457208  0.06835606    -0.20600
F797        F  0.43450064  0.17247629  0.07371161    -0.20300
F798        F  0.32383753  0.08859289  0.45433794    -0.20400
F799        F  0.35596041  0.03952241  0.47403128    -0.20700
F800        F  0.38348095  0.07993659  0.44120803    -0.23400
C801        C  0.32536415  0.31561190  0.42726211    -0.06200
C802        C  0.35368733  0.29047878  0.41943266    -0.00300
C803        C  0.35858417  0.28077971  0.38726958    -0.08800
C804        C  0.34042852  0.30206584  0.36373285    -0.06200
C805        C  0.31575259  0.33096791  0.37164662    -0.00300
C806        C  0.30548333  0.33523987  0.40387343    -0.08700
C807        C  0.27643562  0.36313622  0.41445341     0.61600
H808        H  0.32106450  0.32264510  0.45182789     0.12300
H809        H  0.34758067  0.29766081  0.33918172     0.12300
C810        C  0.38388224  0.24927489  0.37704049     0.61900
F811        F  0.25883683  0.35068975  0.44155106    -0.23300
F812        F  0.24949429  0.36791310  0.39143448    -0.20600
F813        F  0.29324678  0.39697279  0.42082932    -0.20300
F814        F  0.39315807  0.22593022  0.40193842    -0.20400
F815        F  0.41605012  0.26375474  0.36418923    -0.20700
F816        F  0.36602970  0.22798623  0.35446366    -0.23400
C817        C  0.40104595  0.41238811  0.00626516    -0.06200
C818        C  0.38654681  0.37768473  0.01540662    -0.00300
C819        C  0.35193448  0.37644766  0.03162305    -0.08800
C820        C  0.33355440  0.41008973  0.03810099    -0.06200
C821        C  0.34909026  0.44491701  0.03098129    -0.00300
C822        C  0.38322876  0.44617314  0.01404570    -0.08700
C823        C  0.40074982  0.48264412  0.00365277     0.61600
H824        H  0.42709994  0.41282802  0.99346526     0.12300
H825        H  0.30673026  0.40935138  0.04938396     0.12300
C826        C  0.33164597  0.34195362  0.54029360     0.61900
F827        F  0.43040287  0.47711122  0.98337677    -0.23300
F828        F  0.41393121  0.50133734  0.02977820    -0.20600
F829        F  0.37472266  0.50437985  0.98803089    -0.20300
F830        F  0.35538583  0.32240961  0.06424639    -0.20400
F831        F  0.32777485  0.31925791  0.51425054    -0.20700
F832        F  0.29639168  0.34805674  0.55240266    -0.23400
C833        C  0.89799434  0.31855247  0.03693557    -0.06200
C834        C  0.90210008  0.32003200  0.00393532    -0.00300
C835        C  0.88264318  0.34741583  0.98657268    -0.08800
C836        C  0.85756330  0.37092200  0.00261149    -0.06200
C837        C  0.85072004  0.36707583  0.03521096    -0.00300
C838        C  0.87189995  0.34107785  0.05283978    -0.08700
C839        C  0.86587772  0.33624771  0.08801244     0.61600
H840        H  0.91301942  0.29721774  0.04986752     0.12300
H841        H  0.84040764  0.38994127  0.98912150     0.12300
C842        C  0.89107128  0.35769704  0.45258713     0.61900
F843        F  0.89102777  0.31131281  0.10113849    -0.23300
F844        F  0.83038876  0.32299507  0.09365859    -0.20600
F845        F  0.87022249  0.37023472  0.10284325    -0.20300
F846        F  0.87281550  0.31883191  0.93686741    -0.20400
F847        F  0.92930049  0.35872751  0.44901185    -0.20700
F848        F  0.87635322  0.39030114  0.44014535    -0.23400
C849        C  0.59209739  0.31962533  0.49335280    -0.06200
C850        C  0.55726273  0.33376318  0.50204140    -0.00300
C851        C  0.55992187  0.36479067  0.01339852    -0.08800
C852        C  0.59476037  0.38084874  0.02044896    -0.06200
C853        C  0.62851670  0.36317824  0.01280217    -0.00300
C854        C  0.62759552  0.32840992  0.99718739    -0.08700
C855        C  0.66252558  0.30949861  0.98485458     0.61600
H856        H  0.59302276  0.29323278  0.48124167     0.12300
H857        H  0.59600348  0.40751547  0.03228083     0.12300
C858        C  0.52463443  0.38599776  0.02171845     0.61900
F859        F  0.65476668  0.27588858  0.97032298    -0.23300
F860        F  0.68705136  0.30235563  0.00918471    -0.20600
F861        F  0.67760217  0.34816695  0.46588445    -0.20300
F862        F  0.50164687  0.36388903  0.04007389    -0.20400
F863        F  0.49937684  0.39701861  0.50550595    -0.20700
F864        F  0.52490447  0.41326785  0.55156328    -0.23400
C865        C  0.64283867  0.14232070  0.22534193    -0.06200
C866        C  0.61413527  0.14728577  0.24699228    -0.00300
C867        C  0.61214422  0.12268054  0.27331872    -0.08800
C868        C  0.64226618  0.09812434  0.27960516    -0.06200
C869        C  0.67396274  0.09772167  0.26033084    -0.00300
C870        C  0.67304994  0.11861584  0.23151369    -0.08700
C871        C  0.70391315  0.11733344  0.20719162     0.61600
H872        H  0.64334428  0.16056678  0.20489148     0.12300
H873        H  0.64250004  0.08128828  0.30088125     0.12300
C874        C  0.57940421  0.12367020  0.29545440     0.61900
F875        F  0.69494179  0.13678560  0.17990501    -0.23300
F876        F  0.71009084  0.08095693  0.19861430    -0.20600
F877        F  0.73592314  0.13299158  0.21921569    -0.20300
F878        F  0.54694113  0.11987820  0.27820663    -0.20400
F879        F  0.57925359  0.15705739  0.31144150    -0.20700
F880        F  0.58074103  0.09505731  0.31745413    -0.23400
C881        C  0.42444434  0.35655247  0.30116968    -0.06200
C882        C  0.40543005  0.37848321  0.27875922    -0.00300
C883        C  0.41989033  0.38152409  0.24768135    -0.08800
C884        C  0.45145650  0.36030923  0.23975447    -0.06200
C885        C  0.46793876  0.33557132  0.26130351    -0.00300
C886        C  0.45566898  0.33506685  0.29292577    -0.08700
C887        C  0.47534009  0.31173969  0.31773024     0.61600
H888        H  0.41355685  0.35484829  0.32496277     0.12300
H889        H  0.46320592  0.36244556  0.21641164     0.12300
C890        C  0.40264361  0.40718650  0.22303958     0.61900
F891        F  0.46301853  0.31994792  0.34783969    -0.23300
F892        F  0.51324210  0.31838411  0.31684708    -0.20600
F893        F  0.46865811  0.27451415  0.31190641    -0.20300
F894        F  0.39757269  0.44237524  0.23558799    -0.20400
F895        F  0.36878075  0.39308421  0.21330424    -0.20700
F896        F  0.42501948  0.41070363  0.19661699    -0.23400
C897        C  0.56772999  0.24478112  0.36526101    -0.06200
C898        C  0.54683580  0.22758186  0.34164224    -0.00300
C899        C  0.51326740  0.20867240  0.35004703    -0.08800
C900        C  0.49857821  0.21403292  0.38034501    -0.06200
C901        C  0.51727231  0.23559247  0.40255105    -0.00300
C902        C  0.55360597  0.24855148  0.39586797    -0.08700
C903        C  0.57716091  0.26644105  0.42101394     0.61600
H904        H  0.59393131  0.25779213  0.35908252     0.12300
H905        H  0.47164714  0.20235925  0.38631905     0.12300
C906        C  0.49182181  0.18215655  0.32891166     0.61900
F907        F  0.61346618  0.27186911  0.41115281    -0.23300
F908        F  0.57789771  0.24325674  0.44718456    -0.20600
F909        F  0.56223226  0.30069028  0.42873232    -0.20300
F910        F  0.50837182  0.17620874  0.30014657    -0.20400
F911        F  0.45634981  0.19587568  0.32378272    -0.20700
F912        F  0.48912343  0.14790743  0.34389329    -0.23400
C913        C  0.51939676  0.22592170  0.13143789    -0.06200
C914        C  0.50218183  0.24968143  0.15289757    -0.00300
C915        C  0.46880462  0.26826861  0.14432808    -0.08800
C916        C  0.45539335  0.26485083  0.11333622    -0.06200
C917        C  0.47476379  0.24416613  0.09079065    -0.00300
C918        C  0.50646928  0.22271964  0.10029040    -0.08700
C919        C  0.52850274  0.19805915  0.07786242     0.61600
H920        H  0.54469821  0.21177814  0.13867544     0.12300
H921        H  0.43117719  0.28066222  0.10592574     0.12300
C922        C  0.44869153  0.29374512  0.16695869     0.61900
F923        F  0.55034914  0.17262041  0.09418660    -0.23300
F924        F  0.55171446  0.21990010  0.05951492    -0.20600
F925        F  0.50502210  0.17784774  0.05859892    -0.20300
F926        F  0.46817364  0.32676465  0.16912666    -0.20400
F927        F  0.44605110  0.27721733  0.19639054    -0.20700
F928        F  0.41292365  0.30170766  0.15674703    -0.23400
C929        C  0.65536866  0.27829260  0.14251988    -0.06200
C930        C  0.66620966  0.28847174  0.17315905    -0.00300
C931        C  0.69971542  0.30886786  0.17696581    -0.08800
C932        C  0.71721939  0.32380087  0.14999270    -0.06200
C933        C  0.70234877  0.31900349  0.11966599    -0.00300
C934        C  0.67279182  0.29329858  0.11557999    -0.08700
C935        C  0.65752914  0.28406889  0.08329917     0.61600
H936        H  0.63065811  0.26130641  0.13984575     0.12300
H937        H  0.74040468  0.34282534  0.15265226     0.12300
C938        C  0.71436500  0.31917315  0.20912100     0.61900
F939        F  0.63038568  0.25671494  0.08459379    -0.23300
F940        F  0.68605359  0.27110448  0.06451657    -0.20600
F941        F  0.64190841  0.31556280  0.07000365    -0.20300
F942        F  0.71902258  0.28748314  0.22741577    -0.20400
F943        F  0.68921904  0.34288810  0.22308902    -0.20700
F944        F  0.74838121  0.33718192  0.20737815    -0.23400
C945        C  0.85893484  0.59583208  0.24569160    -0.06200
C946        C  0.85261615  0.59577453  0.27851973    -0.00300
C947        C  0.87349963  0.62028335  0.29768039    -0.08800
C948        C  0.89846475  0.64557531  0.28320330    -0.06200
C949        C  0.90207395  0.64803131  0.25013518    -0.00300
C950        C  0.88286223  0.62212869  0.23114113    -0.08700
C951        C  0.88700434  0.62342018  0.19559602     0.61600
H952        H  0.84258430  0.57718079  0.23121689     0.12300
H953        H  0.91310194  0.66572699  0.29756969     0.12300
C954        C  0.86808871  0.62057036  0.33317949     0.61900
F955        F  0.86804495  0.59461458  0.18116019    -0.23300
F956        F  0.92425584  0.62053671  0.18778513    -0.20600
F957        F  0.87316930  0.65677555  0.18400821    -0.20300
F958        F  0.87070892  0.58459334  0.34490737    -0.20400
F959        F  0.83338490  0.63485491  0.34036789    -0.20700
F960        F  0.89467483  0.64212289  0.34813858    -0.23400
C961        C  0.64330284  0.43366750  0.29267349    -0.06200
C962        C  0.68248055  0.43015334  0.29371764    -0.00300
C963        C  0.69844386  0.39446111  0.28768271    -0.08800
C964        C  0.67447243  0.36361680  0.28509273    -0.06200
C965        C  0.63607259  0.36818385  0.28130070    -0.00300
C966        C  0.62002184  0.40376439  0.28475643    -0.08700
C967        C  0.57859441  0.41016261  0.28000075     0.61600
H968        H  0.63074955  0.46063871  0.29657739     0.12300
H969        H  0.68584072  0.33587451  0.28209187     0.12300
C970        C  0.73929743  0.38873618  0.27966204     0.61900
F971        F  0.56806203  0.44595246  0.28822375    -0.23300
F972        F  0.55859519  0.38539593  0.29840660    -0.20600
F973        F  0.56943515  0.40501568  0.24862479    -0.20300
F974        F  0.76190129  0.39871313  0.30423915    -0.20400
F975        F  0.74815532  0.40997306  0.25343762    -0.20700
F976        F  0.74733960  0.35185975  0.27290643    -0.23400
C977        C  0.63000655  0.63852826  0.27643517    -0.06200
C978        C  0.62845564  0.59977164  0.27990701    -0.00300
C979        C  0.59418147  0.58121457  0.27563882    -0.08800
C980        C  0.56258865  0.60231545  0.26683875    -0.06200
C981        C  0.56388430  0.64145801  0.26302932    -0.00300
C982        C  0.59840100  0.66000448  0.26882876    -0.08700
C983        C  0.60245925  0.70220225  0.26815978     0.61600
H984        H  0.65654428  0.65203057  0.28042855     0.12300
H985        H  0.53649053  0.58808192  0.26282539     0.12300
C986        C  0.59128114  0.53928137  0.27960769     0.61900
F987        F  0.63741163  0.71365429  0.27790959    -0.23300
F988        F  0.57681843  0.71790272  0.28839103    -0.20600
F989        F  0.59707135  0.71564011  0.23786453    -0.20300
F990        F  0.59914329  0.52949870  0.31050127    -0.20400
F991        F  0.61632863  0.52191762  0.25978357    -0.20700
F992        F  0.55601020  0.52632161  0.27242600    -0.23400
C993        C  0.72231409  0.48523328  0.16492322    -0.06200
C994        C  0.75401023  0.48367362  0.14542016    -0.00300
C995        C  0.78550930  0.50563959  0.15361499    -0.08800
C996        C  0.78555065  0.52422767  0.18304239    -0.06200
C997        C  0.75407384  0.52406850  0.20262496    -0.00300
C998        C  0.72126479  0.50644118  0.19240098    -0.08700
C999        C  0.68502400  0.51038413  0.21045206     0.61600
H1000       H  0.69762686  0.46977107  0.15849880     0.12300
H1001       H  0.81038335  0.53819522  0.19130027     0.12300
C1002       C  0.81824215  0.51044442  0.13143041     0.61900
F1003       F  0.65553114  0.49348529  0.19507730    -0.23300
F1004       F  0.67665204  0.54779006  0.21372757    -0.20600
F1005       F  0.68829868  0.49428904  0.23988953    -0.20300
F1006       F  0.80576114  0.52337075  0.10246565    -0.20400
F1007       F  0.83641382  0.47679540  0.12757430    -0.20700
F1008       F  0.84369093  0.53601284  0.14281674    -0.23400
C1009       C  0.76448670  0.42769229  0.43155954    -0.06200
C1010       C  0.77239963  0.45241632  0.45602111    -0.00300
C1011       C  0.78906838  0.48760552  0.44842268    -0.08800
C1012       C  0.79069048  0.49890121  0.41658427    -0.06200
C1013       C  0.77838582  0.47566722  0.39244917    -0.00300
C1014       C  0.76797475  0.43857995  0.39988776    -0.08700
C1015       C  0.76139893  0.41047864  0.37427927     0.61600
H1016       H  0.75400768  0.40020667  0.43733153     0.12300
H1017       H  0.79928931  0.52694980  0.41048277     0.12300
C1018       C  0.80533540  0.51350944  0.47318074     0.61900
F1019       F  0.75564819  0.37492709  0.38615730    -0.23300
F1020       F  0.79268835  0.40958927  0.35538949    -0.20600
F1021       F  0.73044218  0.42054460  0.35693175    -0.20300
F1022       F  0.82783789  0.49345877  0.49364642    -0.20400
F1023       F  0.77717876  0.53087016  0.48978003    -0.20700
F1024       F  0.82708192  0.54110081  0.45961743    -0.23400
C1025       C  0.62726830  0.84811012  0.49466991    -0.06200
C1026       C  0.62726809  0.81492525  0.01779047    -0.00300
C1027       C  0.64660381  0.81722816  0.04713229    -0.08800
C1028       C  0.67020665  0.84768320  0.05277121    -0.06200
C1029       C  0.67565690  0.87575029  0.03031069    -0.00300
C1030       C  0.65245653  0.87619478  0.00309085    -0.08700
C1031       C  0.65376392  0.90960650  0.47695849     0.61600
H1032       H  0.61246863  0.84622906  0.47244164     0.12300
H1033       H  0.68760614  0.84798529  0.07367662     0.12300
C1034       C  0.64355221  0.78736944  0.07241618     0.61900
F1035       F  0.68895960  0.91075051  0.46430759    -0.23300
F1036       F  0.64565809  0.94276346  0.49192153    -0.20600
F1037       F  0.62712243  0.90494716  0.95655252    -0.20300
F1038       F  0.65966455  0.75469466  0.06214686    -0.20400
F1039       F  0.60664360  0.78152958  0.07946746    -0.20700
F1040       F  0.66123163  0.79753966  0.10014275    -0.23400
C1041       C  0.42958015  0.67003155  0.49872619    -0.06200
C1042       C  0.46304478  0.64975383  0.50019408    -0.00300
C1043       C  0.46393840  0.60903236  0.01684054    -0.08800
C1044       C  0.42906855  0.59421919  0.02546248    -0.06200
C1045       C  0.39550173  0.61312272  0.01947545    -0.00300
C1046       C  0.39533023  0.65446591  0.50740580    -0.08700
C1047       C  0.36049138  0.67854347  0.50614820     0.61600
H1048       H  0.43032867  0.69864439  0.49087888     0.12300
H1049       H  0.42773404  0.56750764  0.03720522     0.12300
C1050       C  0.49893500  0.58670492  0.02420797     0.61900
F1051       F  0.36833571  0.71508002  0.49786186    -0.23300
F1052       F  0.34366918  0.67903930  0.53542711    -0.20600
F1053       F  0.33593323  0.66457957  0.48403671    -0.20300
F1054       F  0.52345960  0.60817013  0.04158998    -0.20400
F1055       F  0.51568991  0.57559483  0.99643036    -0.20700
F1056       F  0.49127070  0.55489624  0.04163502    -0.23400
C1057       C  0.56397987  0.69196344  0.11116838    -0.06200
C1058       C  0.55091917  0.71999759  0.09102712    -0.00300
C1059       C  0.52449927  0.74644629  0.10206239    -0.08800
C1060       C  0.51104884  0.74274986  0.13288025    -0.06200
C1061       C  0.52186688  0.71301632  0.15221345    -0.00300
C1062       C  0.54932940  0.68730794  0.14156807    -0.08700
C1063       C  0.56300777  0.65471403  0.16157149     0.61600
H1064       H  0.58401359  0.67215461  0.10207247     0.12300
H1065       H  0.48994777  0.76178806  0.14141481     0.12300
C1066       C  0.50865696  0.77739713  0.08132367     0.61900
F1067       F  0.59374229  0.63749586  0.14836920    -0.23300
F1068       F  0.53531093  0.62818218  0.16437863    -0.20600
F1069       F  0.57322486  0.66711627  0.19112340    -0.20300
F1070       F  0.48289225  0.76261470  0.06058941    -0.20400
F1071       F  0.53658061  0.79486309  0.06449501    -0.20700
F1072       F  0.49091143  0.80441152  0.09906171    -0.23400
C1073       C  0.52392976  0.76432098  0.37798081    -0.06200
C1074       C  0.50523133  0.74334943  0.40065127    -0.00300
C1075       C  0.46919350  0.72937435  0.39386398    -0.08800
C1076       C  0.45559654  0.73187944  0.36289267    -0.06200
C1077       C  0.47677418  0.74826539  0.33893909    -0.00300
C1078       C  0.50994704  0.76795017  0.34719042    -0.08700
C1079       C  0.53192219  0.79342590  0.32542173     0.61600
H1080       H  0.55068727  0.77644129  0.38390458     0.12300
H1081       H  0.42966566  0.71832694  0.35674700     0.12300
C1082       C  0.44527391  0.71175134  0.41915264     0.61900
F1083       F  0.53383228  0.82848798  0.33881450    -0.23300
F1084       F  0.51648393  0.79756080  0.29587995    -0.20600
F1085       F  0.56770515  0.77983722  0.32218095    -0.20300
F1086       F  0.44292492  0.73589358  0.44439901    -0.20400
F1087       F  0.46064163  0.67828884  0.42872102    -0.20700
F1088       F  0.40947472  0.70477692  0.40857009    -0.23400
C1089       C  0.69648310  0.65197012  0.43131247    -0.06200
C1090       C  0.66959924  0.67776660  0.42089305    -0.00300
C1091       C  0.66688177  0.68542886  0.38805831    -0.08800
C1092       C  0.68680523  0.66305905  0.36673895    -0.06200
C1093       C  0.70993020  0.63383968  0.37702482    -0.00300
C1094       C  0.71662150  0.62959155  0.40995018    -0.08700
C1095       C  0.74314198  0.60027006  0.42289877     0.61600
H1096       H  0.69874082  0.64638028  0.45639476     0.12300
H1097       H  0.68215974  0.66697557  0.34163849     0.12300
C1098       C  0.64213398  0.71563384  0.37421249     0.61900
F1099       F  0.75260669  0.60743443  0.45398891    -0.23300
F1100       F  0.77559996  0.59995043  0.40540060    -0.20600
F1101       F  0.72664836  0.56549221  0.42178438    -0.20300
F1102       F  0.62981548  0.74052471  0.39674288    -0.20400
F1103       F  0.61176288  0.69936437  0.35966745    -0.20700
F1104       F  0.66189403  0.73574769  0.35190996    -0.23400
C1105       C  0.64946119  0.58601113  0.04811836    -0.06200
C1106       C  0.63637674  0.58790073  0.01667649    -0.00300
C1107       C  0.63917061  0.56271919  0.49567476    -0.08800
C1108       C  0.66118430  0.53365677  0.50836022    -0.06200
C1109       C  0.67851033  0.52611172  0.03868524    -0.00300
C1110       C  0.67075016  0.55578888  0.05938378    -0.08700
C1111       C  0.68440227  0.55507954  0.09334149     0.61600
H1112       H  0.64314731  0.60868268  0.06401560     0.12300
H1113       H  0.66720921  0.50910851  0.49445355     0.12300
C1114       C  0.62562502  0.55959013  0.46178612     0.61900
F1115       F  0.67407012  0.58683786  0.10960669    -0.23300
F1116       F  0.72280622  0.55275856  0.09395443    -0.20600
F1117       F  0.66961686  0.52453573  0.10887017    -0.20300
F1118       F  0.64005574  0.58841262  0.44385908    -0.20400
F1119       F  0.58718309  0.56085154  0.46097723    -0.20700
F1120       F  0.63669301  0.52648578  0.44794253    -0.23400
O1121       O  0.60905452  0.67936082  0.93607787    -0.82200
C1122       C  0.55765045  0.72459036  0.55615267     0.97100
O1123       O  0.59108624  0.71794378  0.54855901    -0.71300
O1124       O  0.60915590  0.65570183  0.52236063    -0.74900
Al1125     Al  0.61490454  0.70534382  0.50915643     1.49000
C1126       C  0.61070947  0.62823942  0.50426522     0.92400
O1127       O  0.52914624  0.64496517  0.98597639    -0.81100
O1128       O  0.54113048  0.74840960  0.95138288    -0.74700
Al1129     Al  0.56949724  0.66345115  0.96169144     1.90100
O1130       O  0.50121397  0.69917492  0.99010810    -0.73800
O1131       O  0.57476559  0.77619965  0.00406149    -0.73600
O1132       O  0.53321137  0.72900963  0.53548675    -0.79300
O1133       O  0.63036856  0.75172729  0.00285761    -0.77500
O1134       O  0.57762869  0.69998693  0.98919809    -1.13600
O1135       O  0.65043881  0.68968469  0.97381982    -0.72800
C1136       C  0.64231223  0.68474308  0.94479931     0.97900
C1137       C  0.50052117  0.66381948  0.99274363     0.94300
Al1138     Al  0.54208427  0.73415761  0.99493455     1.55600
O1139       O  0.60077290  0.62582103  0.98036399    -0.77400
C1140       C  0.60963875  0.77938605  0.00720517     0.98500
C1141       C  0.53057044  0.72527817  0.93083787     0.93300
O1142       O  0.53647862  0.69089300  0.93469140    -0.82800
O1143       O  0.71310375  0.58054427  0.85858645    -0.82200
C1144       C  0.76418642  0.53266418  0.73941991     0.97100
O1145       O  0.76059984  0.56640040  0.74778547    -0.71300
O1146       O  0.69470329  0.58787306  0.76762216    -0.74900
Al1147     Al  0.74271349  0.58972527  0.78621494     1.49000
C1148       C  0.66499802  0.58620186  0.78309484     0.92400
O1149       O  0.68085391  0.50002139  0.80791157    -0.81100
O1150       O  0.78068399  0.50731890  0.84821285    -0.74700
Al1151     Al  0.69846358  0.54066573  0.83229345     1.90100
O1152       O  0.73404389  0.47029541  0.80637342    -0.73800
O1153       O  0.81382310  0.54179497  0.79630018    -0.73600
O1154       O  0.76342485  0.50694664  0.75968559    -0.79300
O1155       O  0.79124043  0.59804040  0.80157428    -0.77500
O1156       O  0.73744355  0.54699156  0.80722988    -1.13600
O1157       O  0.72546009  0.62108069  0.82078916    -0.72800
C1158       C  0.71810046  0.61376536  0.84949176     0.97900
C1159       C  0.69891709  0.47016164  0.80350753     0.94300
Al1160     Al  0.77046242  0.50997820  0.80330529     1.55600
O1161       O  0.66448290  0.57181152  0.81012662    -0.77400
C1162       C  0.81819657  0.57685922  0.79584662     0.98500
C1163       C  0.75474169  0.49869550  0.86724108     0.93300
O1164       O  0.72188532  0.50808901  0.86113398    -0.82800
O1165       O  0.52951961  0.29226424  0.69130308    -0.82200
C1166       C  0.55575143  0.23528311  0.80847166     0.97100
O1167       O  0.53005503  0.24047711  0.78907478    -0.71300
O1168       O  0.49462203  0.27711333  0.74628357    -0.74900
Al1169     Al  0.53263998  0.23804763  0.74578272     1.49000
C1170       C  0.49732388  0.31198342  0.75146658     0.92400
O1171       O  0.59926387  0.34181658  0.74404832    -0.81100
O1172       O  0.64418737  0.28064342  0.72830763    -0.74700
Al1173     Al  0.56519443  0.31149700  0.72066036     1.90100
O1174       O  0.61369803  0.30755834  0.78490268    -0.73800
O1175       O  0.61929696  0.21453558  0.74464734    -0.73600
O1176       O  0.58963616  0.23980059  0.80051150    -0.79300
O1177       O  0.56299044  0.19206866  0.74848210    -0.77500
O1178       O  0.57044665  0.27006939  0.74340878    -1.13600
O1179       O  0.53013142  0.23229745  0.70133088    -0.72800
C1180       C  0.52148887  0.25933701  0.68364471     0.97900
C1181       C  0.61357754  0.33865328  0.77108340     0.94300
Al1182     Al  0.61314292  0.26123777  0.76305779     1.55600
O1183       O  0.52744737  0.32909403  0.74703617    -0.77400
C1184       C  0.59789740  0.18699887  0.74670397     0.98500
C1185       C  0.63599656  0.29035827  0.70010599     0.93300
O1186       O  0.60264793  0.29683986  0.69245337    -0.82800
O1187       O  0.72061866  0.46548324  0.61044802    -0.82200
C1188       C  0.76693748  0.43053765  0.98909047     0.97100
O1189       O  0.76536450  0.45608894  0.00917188    -0.71300
O1190       O  0.73127384  0.50312361  0.55590946    -0.74900
Al1191     Al  0.76663060  0.46181565  0.55154285     1.49000
C1192       C  0.69632556  0.50257463  0.55105655     0.92400
O1193       O  0.65893625  0.40275436  0.55852514    -0.81100
O1194       O  0.71706154  0.35209950  0.56970882    -0.74700
Al1195     Al  0.69439667  0.43327079  0.58125955     1.90100
O1196       O  0.68916343  0.38845785  0.51577537    -0.73800
O1197       O  0.78477330  0.37335333  0.55115241    -0.73600
O1198       O  0.76174266  0.39663430  0.99669398    -0.79300
O1199       O  0.80894445  0.42856999  0.54332352    -0.77500
O1200       O  0.73281751  0.42595621  0.55596313    -1.13600
O1201       O  0.77890653  0.46141244  0.59531425    -0.72800
C1202       C  0.75502383  0.47038155  0.61573266     0.97900
C1203       C  0.65919503  0.38902459  0.53106999     0.94300
Al1204     Al  0.73683771  0.38364235  0.53499179     1.55600
O1205       O  0.67767431  0.47358705  0.55652223    -0.77400
C1206       C  0.81248675  0.39338977  0.54471406     0.98500
C1207       C  0.70981098  0.35955347  0.59849653     0.93300
O1208       O  0.70789100  0.39304564  0.60746075    -0.82800
O1209       O  0.41713819  0.28827557  0.93424003    -0.82200
C1210       C  0.46445109  0.25174018  0.55757299     0.97100
O1211       O  0.43042563  0.25507595  0.54974056    -0.71300
O1212       O  0.40703192  0.31708818  0.52357998    -0.74900
Al1213     Al  0.40646064  0.26730499  0.50958647     1.49000
C1214       C  0.40576565  0.34473540  0.50550014     0.92400
O1215       O  0.49467548  0.32580898  0.98523632    -0.81100
O1216       O  0.48655350  0.22176727  0.95162648    -0.74700
Al1217     Al  0.45552994  0.30571165  0.96058083     1.90100
O1218       O  0.52472178  0.27268193  0.98980649    -0.73800
O1219       O  0.45325831  0.19295671  0.00401292    -0.73600
O1220       O  0.48926788  0.25109039  0.53707602    -0.79300
O1221       O  0.39709080  0.21566722  0.99907283    -0.77500
O1222       O  0.44851908  0.26885670  0.98818837    -1.13600
O1223       O  0.37541608  0.27872065  0.97153129    -0.72800
C1224       C  0.38368587  0.28381482  0.94244944     0.97900
C1225       C  0.52415286  0.30813020  0.99176134     0.94300
Al1226     Al  0.48505710  0.23613223  0.99478887     1.55600
O1227       O  0.42231869  0.34189358  0.97904592    -0.77400
C1228       C  0.41825805  0.18859351  0.00464261     0.98500
C1229       C  0.49662346  0.24504378  0.93093757     0.93300
O1230       O  0.48999872  0.27936817  0.93430419    -0.82800
O1231       O  0.30750918  0.39111224  0.85720269    -0.82200
C1232       C  0.27111542  0.44883107  0.73658383     0.97100
O1233       O  0.27821370  0.41493799  0.74293553    -0.71300
O1234       O  0.34066237  0.39556102  0.76875479    -0.74900
Al1235     Al  0.29087958  0.38777873  0.78114791     1.49000
C1236       C  0.36736710  0.39438137  0.78763890     0.92400
O1237       O  0.34369602  0.47545666  0.81454290    -0.81100
O1238       O  0.23922565  0.46165742  0.84427307    -0.74700
Al1239     Al  0.32439499  0.43304716  0.83496458     1.90100
O1240       O  0.29023255  0.50460806  0.80900388    -0.73800
O1241       O  0.21390878  0.42884738  0.78768405    -0.73600
O1242       O  0.26663996  0.47177743  0.75834690    -0.79300
O1243       O  0.24082587  0.37398873  0.78796186    -0.77500
O1244       O  0.28945794  0.42774442  0.80558258    -1.13600
O1245       O  0.30463006  0.35317117  0.81638173    -0.72800
C1246       C  0.30717683  0.35839974  0.84623043     0.97900
C1247       C  0.32578800  0.50524732  0.80928808     0.94300
Al1248     Al  0.25507431  0.46335900  0.80058490     1.55600
O1249       O  0.36274995  0.40423209  0.81575312    -0.77400
C1250       C  0.21257436  0.39374031  0.78246083     0.98500
C1251       C  0.26243271  0.47107626  0.86537633     0.93300
O1252       O  0.29627364  0.46309929  0.86221308    -0.82800
O1253       O  0.49470318  0.68219575  0.69102766    -0.82200
C1254       C  0.46973116  0.73769564  0.80782181     0.97100
O1255       O  0.49506680  0.73429456  0.78782640    -0.71300
O1256       O  0.53070522  0.70025817  0.74389163    -0.74900
Al1257     Al  0.49115776  0.73690763  0.74431697     1.49000
C1258       C  0.53086088  0.66569085  0.75029128     0.92400
O1259       O  0.42924410  0.63005510  0.74589917    -0.81100
O1260       O  0.38090896  0.69083563  0.72844506    -0.74700
Al1261     Al  0.46132230  0.66154443  0.72144073     1.90100
O1262       O  0.41266381  0.66514222  0.78524442    -0.73800
O1263       O  0.40407054  0.75732885  0.74401385    -0.73600
O1264       O  0.43574186  0.73270827  0.80016569    -0.79300
O1265       O  0.45966133  0.78144095  0.74720857    -0.77500
O1266       O  0.45454553  0.70330802  0.74302246    -1.13600
O1267       O  0.49211470  0.74235025  0.69961473    -0.72800
C1268       C  0.50156990  0.71516856  0.68247949     0.97900
C1269       C  0.41386972  0.63372060  0.77236213     0.94300
Al1270     Al  0.41192355  0.71100031  0.76288701     1.55600
O1271       O  0.50120206  0.64692784  0.74795878    -0.77400
C1272       C  0.42473573  0.78538440  0.74533008     0.98500
C1273       C  0.38925636  0.68088544  0.70042640     0.93300
O1274       O  0.42243378  0.67318683  0.69330350    -0.82800
O1275       O  0.30689603  0.51129985  0.60283921    -0.82200
C1276       C  0.26081142  0.54352003  0.98417840     0.97100
O1277       O  0.26196237  0.51642744  0.00301169    -0.71300
O1278       O  0.29475133  0.47920845  0.54689147    -0.74900
Al1279     Al  0.25765524  0.51840346  0.54583284     1.49000
C1280       C  0.32959221  0.48062356  0.54200203     0.92400
O1281       O  0.36236895  0.58121845  0.55591001    -0.81100
O1282       O  0.29906739  0.62791734  0.57244552    -0.74700
Al1283     Al  0.32957813  0.54718772  0.57603438     1.90100
O1284       O  0.33032427  0.60250856  0.51612084    -0.73800
O1285       O  0.23342606  0.60502769  0.54997372    -0.73600
O1286       O  0.26488513  0.57684216  0.99386968    -0.79300
O1287       O  0.21352470  0.54888038  0.54010441    -0.77500
O1288       O  0.28976388  0.55560795  0.55204579    -1.13600
O1289       O  0.24761976  0.51348498  0.59027688    -0.72800
C1290       C  0.27343479  0.50409966  0.60916837     0.97900
C1291       C  0.36067369  0.59928899  0.53050415     0.94300
Al1292     Al  0.28259664  0.60014496  0.53460276     1.55600
O1293       O  0.34731851  0.51004106  0.54817769    -0.77400
C1294       C  0.20748820  0.58346856  0.54216720     0.98500
C1295       C  0.30882474  0.61725859  0.60007666     0.93300
O1296       O  0.31541477  0.58333156  0.60569627    -0.82800
O1297       O  0.10830656  0.17597165  0.67416543    -0.82200
C1298       C  0.06601226  0.22795639  0.79477389     0.97100
O1299       O  0.09959542  0.22303330  0.78626620    -0.71300
O1300       O  0.12213161  0.15867850  0.76459661    -0.74900
Al1301     Al  0.12186718  0.20705500  0.74646720     1.49000
C1302       C  0.12006263  0.12860274  0.74986445     0.92400
O1303       O  0.03276931  0.14427511  0.72997807    -0.81100
O1304       O  0.03691514  0.24344755  0.68602135    -0.74700
Al1305     Al  0.07074839  0.16169507  0.70273719     1.90100
O1306       O  0.00235823  0.19733157  0.73080722    -0.73800
O1307       O  0.07282297  0.27903173  0.73648007    -0.73600
O1308       O  0.04017927  0.22889686  0.77481667    -0.79300
O1309       O  0.12919887  0.25680267  0.73306617    -0.77500
O1310       O  0.07843264  0.20158355  0.72679717    -1.13600
O1311       O  0.15134328  0.19102176  0.70919828    -0.72800
C1312       C  0.14206095  0.18171635  0.68109983     0.97900
C1313       C  0.00359465  0.16240116  0.73616023     0.94300
Al1314     Al  0.04149656  0.23455770  0.73124853     1.55600
O1315       O  0.10395809  0.12801689  0.72352024    -0.77400
C1316       C  0.10773725  0.28395695  0.73791147     0.98500
C1317       C  0.02688169  0.21724328  0.66772294     0.93300
O1318       O  0.03523398  0.18410209  0.67471532    -0.82800
O1319       O  0.20339216  0.07984410  0.58263307    -0.82200
C1320       C  0.25765044  0.03462780  0.96497997     0.97100
O1321       O  0.25062510  0.06809917  0.97272247    -0.71300
O1322       O  0.18811696  0.09392876  0.49188023    -0.74900
Al1323     Al  0.23605863  0.09318711  0.51115851     1.49000
C1324       C  0.15811925  0.09285866  0.50686503     0.92400
O1325       O  0.17320357  0.00325713  0.52722716    -0.81100
O1326       O  0.27039963  0.00862690  0.57285435    -0.74700
Al1327     Al  0.18975482  0.04189595  0.55423269     1.90100
O1328       O  0.22656226  0.97330227  0.52691234    -0.73800
O1329       O  0.30768261  0.04429919  0.52562200    -0.73600
O1330       O  0.25958786  0.00940664  0.98555781    -0.79300
O1331       O  0.28470566  0.10079508  0.52597524    -0.77500
O1332       O  0.23018791  0.04954627  0.53089565    -1.13600
O1333       O  0.21902702  0.12291413  0.54764996    -0.72800
C1334       C  0.20951327  0.11364596  0.57566558     0.97900
C1335       C  0.19157334  0.97385402  0.52201956     0.94300
Al1336     Al  0.26369908  0.01275778  0.52781593     1.55600
O1337       O  0.15710889  0.07542825  0.53267478    -0.77400
C1338       C  0.31223415  0.07926113  0.52531223     0.98500
C1339       C  0.24399037  0.99898316  0.59080061     0.93300
O1340       O  0.21090828  0.00633340  0.58312983    -0.82800
O1341       O  0.03150752  0.76967716  0.91652229    -0.82200
C1342       C  0.06365133  0.73940757  0.54084730     0.97100
O1343       O  0.03675606  0.74125637  0.52196212    -0.71300
O1344       O  0.99885691  0.76863204  0.47480246    -0.74900
Al1345     Al  0.03532138  0.72822157  0.97879430     1.49000
C1346       C  0.99880602  0.80153464  0.97348353     0.92400
O1347       O  0.10062376  0.83117830  0.96030060    -0.81100
O1348       O  0.14643264  0.76697076  0.95195743    -0.74700
Al1349     Al  0.06667975  0.79565989  0.94213594     1.90100
O1350       O  0.11972221  0.80557502  0.50599060    -0.73800
O1351       O  0.12370091  0.70633397  0.47667236    -0.73600
O1352       O  0.09711399  0.74121900  0.53105498    -0.79300
O1353       O  0.06591197  0.68442773  0.98823834    -0.77500
O1354       O  0.07307010  0.75929569  0.97035744    -1.13600
O1355       O  0.03017096  0.71277785  0.93553066    -0.72800
C1356       C  0.02244776  0.73584479  0.91374204     0.97900
C1357       C  0.11869852  0.83434688  0.48890086     0.94300
Al1358     Al  0.11852128  0.75605652  0.49008751     1.55600
O1359       O  0.02872011  0.81763036  0.96621254    -0.77400
C1360       C  0.10068522  0.67867617  0.98716596     0.98500
C1361       C  0.13747263  0.77235145  0.92313306     0.93300
O1362       O  0.10386163  0.77693273  0.91557694    -0.82800
O1363       O  0.22066564  0.95235215  0.84336272    -0.82200
C1364       C  0.24803796  0.93661808  0.71731490     0.97100
O1365       O  0.25252792  0.95907977  0.73948164    -0.71300
O1366       O  0.22640157  0.99126782  0.78888202    -0.74900
Al1367     Al  0.26259401  0.95200345  0.78224315     1.49000
C1368       C  0.19098248  0.99057535  0.78789906     0.92400
O1369       O  0.15669895  0.88934889  0.79753444    -0.81100
O1370       O  0.21714030  0.84146408  0.79790524    -0.74700
Al1371     Al  0.19407455  0.92018475  0.81615731     1.90100
O1372       O  0.17824535  0.88102302  0.75059278    -0.73800
O1373       O  0.27962724  0.86418581  0.76923875    -0.73600
O1374       O  0.24066472  0.90264487  0.72334022    -0.79300
O1375       O  0.30445912  0.91989620  0.77244597    -0.77500
O1376       O  0.22917726  0.91564963  0.78679586    -1.13600
O1377       O  0.27760188  0.95118458  0.82579343    -0.72800
C1378       C  0.25446817  0.96046277  0.84667482     0.97900
C1379       C  0.15161128  0.87883551  0.76970735     0.94300
Al1380     Al  0.22902710  0.87564392  0.76238995     1.55600
O1381       O  0.17319362  0.96125671  0.79469911    -0.77400
C1382       C  0.30753987  0.88524529  0.76751419     0.98500
C1383       C  0.21433782  0.84663973  0.82772549     0.93300
O1384       O  0.21302075  0.87925337  0.83894164    -0.82800
O1385       O  0.91235768  0.78465677  0.66984034    -0.82200
C1386       C  0.95624645  0.73557342  0.79126572     0.97100
O1387       O  0.92281264  0.73901625  0.78193820    -0.71300
O1388       O  0.90107362  0.80408077  0.75992451    -0.74900
Al1389     Al  0.90066320  0.75554570  0.74226784     1.49000
C1390       C  0.90405640  0.83390423  0.74453789     0.92400
O1391       O  0.99001223  0.81826912  0.72217725    -0.81100
O1392       O  0.98539175  0.71696218  0.68294855    -0.74700
Al1393     Al  0.95081911  0.79976372  0.69698151     1.90100
O1394       O  0.02086840  0.76532782  0.72512049    -0.73800
O1395       O  0.94997198  0.68472358  0.73509692    -0.73600
O1396       O  0.98273003  0.73623973  0.77178360    -0.79300
O1397       O  0.89364519  0.70623698  0.72800217    -0.77500
O1398       O  0.94403550  0.76096472  0.72245465    -1.13600
O1399       O  0.87041179  0.77148753  0.70604825    -0.72800
C1400       C  0.87896789  0.77884960  0.67754564     0.97900
C1401       C  0.01954025  0.80053586  0.72798446     0.94300
Al1402     Al  0.98132480  0.72834798  0.72792125     1.55600
O1403       O  0.91903239  0.83410594  0.71781912    -0.77400
C1404       C  0.91506360  0.67978535  0.73507376     0.98500
C1405       C  0.99323672  0.74258310  0.66321570     0.93300
O1406       O  0.98409136  0.77570211  0.66933907    -0.82800
O1407       O  0.81686728  0.88895346  0.58840072    -0.82200
C1408       C  0.76372681  0.93698651  0.96916546     0.97100
O1409       O  0.76822590  0.90303918  0.97703447    -0.71300
O1410       O  0.83416880  0.87954712  0.49685898    -0.74900
Al1411     Al  0.78641319  0.87962992  0.51603464     1.49000
C1412       C  0.86421323  0.87894332  0.51206344     0.92400
O1413       O  0.85365723  0.96548471  0.53537394    -0.79500
O1414       O  0.75405230  0.96394587  0.57698704    -0.74700
Al1415     Al  0.83378156  0.92699771  0.56106046     1.90100
O1416       O  0.80160643  0.99803185  0.53250340    -0.73800
O1417       O  0.71671863  0.93033258  0.52928003    -0.73600
O1418       O  0.76648476  0.96218278  0.98931126    -0.79300
O1419       O  0.73822192  0.87324465  0.53160017    -0.77500
O1420       O  0.79388668  0.92219885  0.53639674    -1.13600
O1421       O  0.80289547  0.84821147  0.55139616    -0.72800
C1422       C  0.81024730  0.85583286  0.58008736     0.97900
C1423       C  0.83669376  0.99537987  0.52879124     0.94300
Al1424     Al  0.76235746  0.96033327  0.53260053     1.55600
O1425       O  0.86569656  0.89288094  0.53926286    -0.77400
C1426       C  0.71119473  0.89542116  0.53014448     0.98500
C1427       C  0.78004714  0.97204437  0.59575733     0.93300
O1428       O  0.81292218  0.96245060  0.58957402    -0.82800
O1429       O  0.98365111  0.19686039  0.91666062    -0.82200
C1430       C  0.96099454  0.23127843  0.54295454     0.97100
O1431       O  0.98568187  0.23468852  0.52225786    -0.71300
O1432       O  0.02229868  0.20893864  0.47411390    -0.74900
Al1433     Al  0.98418677  0.23839258  0.97811041     1.49000
C1434       C  0.02001289  0.16540918  0.97154059     0.92400
O1435       O  0.91840275  0.13630027  0.96369286    -0.81100
O1436       O  0.87155230  0.19623308  0.95875158    -0.74700
Al1437     Al  0.95028341  0.17147635  0.94357996     1.90100
O1438       O  0.90829142  0.16084009  0.50987800    -0.73800
O1439       O  0.89227903  0.26074846  0.48443399    -0.73600
O1440       O  0.92730585  0.22520651  0.53510534    -0.79300
O1441       O  0.95357105  0.28162384  0.98853679    -0.77500
O1442       O  0.94628617  0.20719706  0.97207671    -1.13600
O1443       O  0.98587313  0.25394858  0.93467635    -0.72800
C1444       C  0.99395216  0.23020393  0.91376883     0.97900
C1445       C  0.90959888  0.13282490  0.49224330     0.94300
Al1446     Al  0.90353914  0.21079858  0.49517561     1.55600
O1447       O  0.98977022  0.14925433  0.96547104    -0.77400
C1448       C  0.91864657  0.28675045  0.98889336     0.98500
C1449       C  0.87797400  0.19195873  0.92932295     0.93300
O1450       O  0.91098728  0.19120500  0.91940166    -0.82800
O1451       O  0.80200904  0.00076280  0.83988057    -0.82200
C1452       C  0.76802741  0.03483350  0.71864084     0.97100
O1453       O  0.76364365  0.00914904  0.73831287    -0.71300
O1454       O  0.79151629  0.96996345  0.78358385    -0.74900
Al1455     Al  0.75598232  0.01110030  0.78129797     1.49000
C1456       C  0.82677849  0.96901225  0.78071126     0.92400
O1457       O  0.86494036  0.06911710  0.79696250    -0.81100
O1458       O  0.80240308  0.11753817  0.80582267    -0.74700
Al1459     Al  0.82798252  0.03612880  0.81426297     1.90100
O1460       O  0.83913123  0.08683462  0.75335245    -0.73800
O1461       O  0.73933058  0.10024785  0.77662386    -0.73600
O1462       O  0.77647004  0.06762928  0.72727228    -0.79300
O1463       O  0.71373666  0.04516880  0.77436284    -0.77500
O1464       O  0.79063500  0.04588945  0.78760997    -1.13600
O1465       O  0.74395768  0.00761364  0.82517310    -0.72800
C1466       C  0.76785434  0.99520824  0.84447086     0.97900
C1467       C  0.86698818  0.08607350  0.77102636     0.94300
Al1468     Al  0.78942565  0.08926583  0.76762084     1.55600
O1469       O  0.84596162  0.99747956  0.78773402    -0.77400
C1470       C  0.71126921  0.08034818  0.77160084     0.98500
C1471       C  0.80785970  0.10803430  0.83461038     0.93300
O1472       O  0.81229018  0.07408688  0.84207377    -0.82800
C1473       C  0.82428869  0.15201397  0.91506026    -0.06200
C1474       C  0.84820047  0.18128651  0.90650786    -0.00300
C1475       C  0.84972285  0.19225627  0.87429777    -0.08800
C1476       C  0.83291998  0.16949354  0.85129524    -0.06200
C1477       C  0.81370603  0.13684198  0.85957017    -0.00300
C1478       C  0.80634753  0.12996387  0.89205973    -0.08700
C1479       C  0.78140791  0.09830953  0.90278785     0.61600
H1480       H  0.82249418  0.14403589  0.93971481     0.12300
H1481       H  0.83760590  0.17556810  0.82657263     0.12300
C1482       C  0.87177635  0.22595594  0.86363706     0.61900
F1483       F  0.76759418  0.10485268  0.93274437    -0.23300
F1484       F  0.80128323  0.06532029  0.90344936    -0.20600
F1485       F  0.75137951  0.09478895  0.88252360    -0.20300
F1486       F  0.90870777  0.21620386  0.85987540    -0.20400
F1487       F  0.86891943  0.25424777  0.88561551    -0.20700
F1488       F  0.85848594  0.23950352  0.83510647    -0.23400
C1489       C  0.87648955  0.04960187  0.54130474    -0.06200
C1490       C  0.85839875  0.02832392  0.51840806    -0.00300
C1491       C  0.86308294  0.03788746  0.98590193    -0.08800
C1492       C  0.87947240  0.07232739  0.97864216    -0.06200
C1493       C  0.89407182  0.09621409  0.50242389    -0.00300
C1494       C  0.89311545  0.08408235  0.53437184    -0.08700
C1495       C  0.90883716  0.10719797  0.56122255     0.61600
H1496       H  0.87682513  0.03917060  0.56547812     0.12300
H1497       H  0.88128140  0.08086855  0.95415377     0.12300
C1498       C  0.85091704  0.01219569  0.95954884     0.61900
F1499       F  0.90995707  0.08741511  0.58934529    -0.23300
F1500       F  0.88683751  0.13834361  0.56577472    -0.20600
F1501       F  0.94468956  0.11812325  0.55435311    -0.20300
F1502       F  0.81270285  0.01149799  0.95810989    -0.20400
F1503       F  0.86406890  0.97648818  0.96499903    -0.20700
F1504       F  0.86424451  0.02389184  0.93050550    -0.23400
C1505       C  0.76937536  0.92583505  0.91159815    -0.06200
C1506       C  0.75597833  0.94838327  0.93602043    -0.00300
C1507       C  0.73809566  0.98286456  0.92818176    -0.08800
C1508       C  0.73976277  0.99586059  0.89695501    -0.06200
C1509       C  0.75718027  0.97526699  0.87347117    -0.00300
C1510       C  0.76987962  0.93863523  0.88018329    -0.08700
C1511       C  0.78333939  0.91310054  0.85419457     0.61600
H1512       H  0.78137632  0.89897223  0.91745099     0.12300
H1513       H  0.72956291  0.02347701  0.89110795     0.12300
C1514       C  0.71818572  0.00720237  0.95213788     0.61900
F1515       F  0.78955153  0.87716570  0.86508356    -0.23300
F1516       F  0.81618550  0.92634185  0.84160359    -0.20600
F1517       F  0.75651209  0.91145458  0.83085946    -0.20300
F1518       F  0.74349186  0.02856533  0.96864412    -0.20400
F1519       F  0.69824747  0.98555239  0.97301123    -0.20700
F1520       F  0.69319067  0.03109595  0.93749989    -0.23400
C1521       C  0.74369999  0.98165337  0.64464063    -0.06200
C1522       C  0.77275419  0.99321635  0.62502355    -0.00300
C1523       C  0.79505840  0.02405840  0.63424322    -0.08800
C1524       C  0.79033023  0.03944965  0.66426293    -0.06200
C1525       C  0.76398209  0.02519598  0.68506571    -0.00300
C1526       C  0.73813686  0.99796264  0.67433718    -0.08700
C1527       C  0.70480047  0.98505195  0.69344584     0.61600
H1528       H  0.72584551  0.95902593  0.63706750     0.12300
H1529       H  0.80916466  0.06085693  0.67257569     0.12300
C1530       C  0.82480555  0.03996767  0.61314440     0.61900
F1531       F  0.67453623  0.97968815  0.67373023    -0.23300
F1532       F  0.69430919  0.01094284  0.71577756    -0.20600
F1533       F  0.71302726  0.95168424  0.70829694    -0.20300
F1534       F  0.81004465  0.04650997  0.58349600    -0.20400
F1535       F  0.85395307  0.01490846  0.61169880    -0.20700
F1536       F  0.83858573  0.07346922  0.62431538    -0.23400
C1537       C  0.82064042  0.80919856  0.65957051    -0.06200
C1538       C  0.85018366  0.78482382  0.65283586    -0.00300
C1539       C  0.85737913  0.77562732  0.62088164    -0.08800
C1540       C  0.84073555  0.79709413  0.59686439    -0.06200
C1541       C  0.81574408  0.82587410  0.60392138    -0.00300
C1542       C  0.80257775  0.82934052  0.63528228    -0.08700
C1543       C  0.77080715  0.85544800  0.64323516     0.61600
H1544       H  0.81421460  0.81533291  0.68398434     0.12300
H1545       H  0.84954107  0.79306873  0.57269645     0.12300
C1546       C  0.88362139  0.74462857  0.61113759     0.61900
F1547       F  0.75455968  0.84563565  0.67164918    -0.23300
F1548       F  0.74358692  0.85359150  0.62013688    -0.20600
F1549       F  0.78366369  0.89165145  0.64537990    -0.20300
F1550       F  0.86574804  0.72169837  0.58975690    -0.20400
F1551       F  0.89477145  0.72271383  0.63639666    -0.20700
F1552       F  0.91473641  0.75980271  0.59688539    -0.23400
C1553       C  0.84738466  0.87026321  0.75075593    -0.06200
C1554       C  0.88566936  0.86794136  0.75573980    -0.00300
C1555       C  0.90526642  0.89895855  0.76750486    -0.08800
C1556       C  0.88493645  0.93104309  0.77599710    -0.06200
C1557       C  0.84610725  0.93380955  0.77096009    -0.00300
C1558       C  0.82738434  0.90317534  0.75656786    -0.08700
C1559       C  0.78767859  0.90560821  0.74440022     0.61600
H1560       H  0.83356628  0.84631061  0.74055192     0.12300
H1561       H  0.89956029  0.95448315  0.78614939     0.12300
C1562       C  0.94736024  0.89806714  0.77055931     0.61900
F1563       F  0.77773006  0.87441896  0.72726964    -0.23300
F1564       F  0.78450831  0.93611833  0.72458622    -0.20600
F1565       F  0.76283720  0.90854571  0.76902801    -0.20300
F1566       F  0.96314316  0.89349526  0.74108261    -0.20400
F1567       F  0.95802310  0.86870343  0.78980256    -0.20700
F1568       F  0.96119431  0.93070267  0.78333813    -0.23400
C1569       C  0.11266779  0.85018713  0.72809463    -0.06200
C1570       C  0.11556232  0.86168616  0.75970381    -0.00300
C1571       C  0.08496058  0.85475320  0.78046546    -0.08800
C1572       C  0.05446647  0.83394323  0.76919656    -0.06200
C1573       C  0.05280956  0.82140693  0.73806319    -0.00300
C1574       C  0.08143175  0.83097879  0.71683428    -0.08700
C1575       C  0.07798055  0.82229420  0.68215105     0.61600
H1576       H  0.13513309  0.85643329  0.71195085     0.12300
H1577       H  0.03136746  0.82728895  0.78461102     0.12300
C1578       C  0.08341461  0.86945507  0.81404766     0.61900
F1579       F  0.10821284  0.83488460  0.66494548    -0.23300
F1580       F  0.04644624  0.83977455  0.67058522    -0.20600
F1581       F  0.07525332  0.78417708  0.67818854    -0.20300
F1582       F  0.08806796  0.90773078  0.81377673    -0.20400
F1583       F  0.11084798  0.85291391  0.83225528    -0.20700
F1584       F  0.04954563  0.86207028  0.82830498    -0.23400
C1585       C  0.93200186  0.87837354  0.00015919    -0.06200
C1586       C  0.89791637  0.86096516  0.49894277    -0.00300
C1587       C  0.89772894  0.82396810  0.48739664    -0.08800
C1588       C  0.93180024  0.80711560  0.47967165    -0.06200
C1589       C  0.96490776  0.82382958  0.98060749    -0.00300
C1590       C  0.96575871  0.86126994  0.99176846    -0.08700
C1591       C  0.00158871  0.88343327  0.99532465     0.61600
H1592       H  0.93193996  0.90634849  0.00969755     0.12300
H1593       H  0.93188736  0.77862470  0.47136807     0.12300
C1594       C  0.86201297  0.80166877  0.48420565     0.61900
F1595       F  0.99551782  0.91809815  0.00865187    -0.23300
F1596       F  0.01749487  0.88913412  0.96601575    -0.20600
F1597       F  0.02620623  0.86449981  0.01460317    -0.20300
F1598       F  0.83879079  0.81859812  0.46239923    -0.20400
F1599       F  0.84427936  0.79956073  0.51302300    -0.20700
F1600       F  0.86858218  0.76559158  0.47412621    -0.23400
C1601       C  0.19818222  0.79836759  0.90539430    -0.06200
C1602       C  0.16598969  0.77808227  0.89793436    -0.00300
C1603       C  0.15794482  0.77127747  0.86555877    -0.08800
C1604       C  0.17789854  0.79079519  0.84213456    -0.06200
C1605       C  0.20679281  0.81530844  0.84999239    -0.00300
C1606       C  0.21932867  0.81624491  0.88178039    -0.08700
C1607       C  0.25371404  0.83740811  0.89186536     0.61600
H1608       H  0.20546089  0.80266768  0.92994062     0.12300
H1609       H  0.16849580  0.78951132  0.81782912     0.12300
C1610       C  0.12630631  0.74630723  0.85518548     0.61900
F1611       F  0.27536887  0.81494179  0.91116396    -0.23300
F1612       F  0.24329179  0.86882148  0.90848939    -0.20600
F1613       F  0.27529495  0.84788405  0.86632999    -0.20300
F1614       F  0.09441752  0.76736401  0.85086054    -0.20400
F1615       F  0.11972116  0.71870837  0.87737707    -0.20700
F1616       F  0.13503535  0.72897244  0.82702088    -0.23400
C1617       C  0.03779776  0.70410442  0.58669076    -0.06200
C1618       C  0.05423481  0.73697576  0.57474890    -0.00300
C1619       C  0.05242027  0.76975771  0.59259253    -0.08800
C1620       C  0.03213021  0.76944863  0.62070782    -0.06200
C1621       C  0.01520751  0.73708671  0.63327527    -0.00300
C1622       C  0.01899311  0.70329000  0.61620126    -0.08700
C1623       C  0.00202437  0.66720071  0.62804850     0.61600
H1624       H  0.03869420  0.67939591  0.57211821     0.12300
H1625       H  0.02856172  0.79555338  0.63261960     0.12300
C1626       C  0.07063969  0.80551656  0.58112727     0.61900
F1627       F  0.00750374  0.63822673  0.60705494    -0.23300
F1628       F  0.96412061  0.67169286  0.63218743    -0.20600
F1629       F  0.01826388  0.65724578  0.65647220    -0.20300
F1630       F  0.05511248  0.81649036  0.55269976    -0.20400
F1631       F  0.10830079  0.79941062  0.57710153    -0.20700
F1632       F  0.06638317  0.83444022  0.60233775    -0.23400
C1633       C  0.99399647  0.70331092  0.83185836    -0.06200
C1634       C  0.96576224  0.72933937  0.82511074    -0.00300
C1635       C  0.95103243  0.75087921  0.85005419    -0.08800
C1636       C  0.96855093  0.74892782  0.87984274    -0.06200
C1637       C  0.99972396  0.72594477  0.88560816    -0.00300
C1638       C  0.01109685  0.70077733  0.86172355    -0.08700
C1639       C  0.04146020  0.67164102  0.86520748     0.61600
H1640       H  0.00400153  0.68558513  0.81299331     0.12300
H1641       H  0.95947900  0.76733466  0.89854006     0.12300
C1642       C  0.91882307  0.77762673  0.84491353     0.61900
F1643       F  0.02631418  0.63681931  0.85969801    -0.23300
F1644       F  0.05787973  0.67093753  0.89460818    -0.20600
F1645       F  0.06881439  0.67818769  0.84297056    -0.20300
F1646       F  0.88805229  0.75834808  0.83412315    -0.20400
F1647       F  0.92876541  0.80446835  0.82302588    -0.20700
F1648       F  0.90874805  0.79553305  0.87250266    -0.23400
C1649       C  0.12020832  0.90338290  0.49053269    -0.06200
C1650       C  0.13732399  0.86946185  0.49876377    -0.00300
C1651       C  0.17310705  0.87009743  0.51296436    -0.08800
C1652       C  0.18989275  0.90477302  0.51891881    -0.06200
C1653       C  0.17212985  0.93884866  0.51221633    -0.00300
C1654       C  0.13684360  0.93816236  0.49691365    -0.08700
C1655       C  0.11904582  0.97239138  0.98129397     0.61600
H1656       H  0.09424124  0.90151509  0.97371126     0.12300
H1657       H  0.21727895  0.90539752  0.52932731     0.12300
C1658       C  0.19423335  0.83460440  0.52123502     0.61900
F1659       F  0.09080166  0.96509306  0.95993456    -0.23300
F1660       F  0.14526519  0.99418660  0.96603625    -0.20600
F1661       F  0.10423607  0.99290204  0.51218043    -0.20300
F1662       F  0.19710208  0.81212479  0.49495751    -0.20400
F1663       F  0.17585816  0.81562195  0.54497350    -0.20700
F1664       F  0.22997892  0.84190189  0.53176732    -0.23400
C1665       C  0.08742488  0.15676452  0.96610986    -0.06200
C1666       C  0.05367034  0.14293848  0.97755810    -0.00300
C1667       C  0.05737274  0.12368230  0.50610322    -0.08800
C1668       C  0.09029256  0.10329964  0.51066395    -0.06200
C1669       C  0.12395175  0.11323360  0.49596771    -0.00300
C1670       C  0.12137857  0.13892609  0.97246133    -0.08700
C1671       C  0.15672584  0.15621545  0.95945884     0.61600
H1672       H  0.08694310  0.18225901  0.95235498     0.12300
H1673       H  0.09005655  0.07988291  0.52686532     0.12300
C1674       C  0.02394588  0.11559479  0.52679406     0.61900
F1675       F  0.14989923  0.18886038  0.94285046    -0.23300
F1676       F  0.17319601  0.13164227  0.93894345    -0.20600
F1677       F  0.18100939  0.16457205  0.98367927    -0.20300
F1678       F  0.03261243  0.09133691  0.55124245    -0.20400
F1679       F  0.01141538  0.14850677  0.54004233    -0.20700
F1680       F  0.99593309  0.09968542  0.50902266    -0.23400
C1681       C  0.24037354  0.01537910  0.87825677    -0.06200
C1682       C  0.26408155  0.98484931  0.87350891    -0.00300
C1683       C  0.29149134  0.97642934  0.89628291    -0.08800
C1684       C  0.29007807  0.99513008  0.92550107    -0.06200
C1685       C  0.26351022  0.02322730  0.93157586    -0.00300
C1686       C  0.24003027  0.03522369  0.90667697    -0.08700
C1687       C  0.21316371  0.06723296  0.91047799     0.61600
H1688       H  0.22055256  0.02236603  0.85984781     0.12300
H1689       H  0.30886217  0.98691318  0.94429022     0.12300
C1690       C  0.32128127  0.94759371  0.88993955     0.61900
F1691       F  0.23288763  0.09896801  0.91830842    -0.23300
F1692       F  0.18782031  0.05856154  0.93384520    -0.20600
F1693       F  0.19350925  0.07473184  0.88302088    -0.20300
F1694       F  0.34159919  0.95826352  0.86372845    -0.20400
F1695       F  0.30514001  0.91337008  0.88434213    -0.20700
F1696       F  0.34559634  0.94386554  0.91513680    -0.23400
C1697       C  0.23573962  0.93047036  0.65941718    -0.06200
C1698       C  0.25169432  0.95101939  0.68410533    -0.00300
C1699       C  0.27100992  0.98481091  0.67635865    -0.08800
C1700       C  0.26909705  0.99881265  0.64523738    -0.06200
C1701       C  0.25063428  0.97956934  0.62136267    -0.00300
C1702       C  0.23569339  0.94381255  0.62803961    -0.08700
C1703       C  0.22151464  0.91916695  0.60174422     0.61600
H1704       H  0.22276291  0.90400061  0.66488870     0.12300
H1705       H  0.28105950  0.02570365  0.63948166     0.12300
C1706       C  0.29434550  0.00621658  0.70016480     0.61900
F1707       F  0.21252258  0.88378173  0.61243425    -0.23300
F1708       F  0.24911793  0.91565905  0.57926066    -0.20600
F1709       F  0.19009560  0.93466702  0.58820719    -0.20300
F1710       F  0.31797421  0.98200358  0.71596573    -0.20400
F1711       F  0.27150815  0.02425906  0.72144884    -0.20700
F1712       F  0.31630160  0.03297548  0.68568887    -0.23400
C1713       C  0.93516530  0.15968238  0.74133614    -0.06200
C1714       C  0.96957727  0.14268338  0.74753838    -0.00300
C1715       C  0.97012284  0.10800258  0.76397671    -0.08800
C1716       C  0.93598190  0.09039928  0.77093234    -0.06200
C1717       C  0.90165864  0.10611796  0.76211233    -0.00300
C1718       C  0.90119234  0.14187972  0.74748118    -0.08700
C1719       C  0.86532286  0.16209433  0.73882717     0.61600
H1720       H  0.93496375  0.18722800  0.73092086     0.12300
H1721       H  0.93584813  0.06373188  0.78301736     0.12300
C1722       C  0.00611503  0.09019689  0.77545956     0.61900
F1723       F  0.87179985  0.19772886  0.72739984    -0.23300
F1724       F  0.84305015  0.16540731  0.76517513    -0.20600
F1725       F  0.84665645  0.14271237  0.71554166    -0.20300
F1726       F  0.02727362  0.11624092  0.79146722    -0.20400
F1727       F  0.02603983  0.07660628  0.75012401    -0.20700
F1728       F  0.99953165  0.06073627  0.79592374    -0.23400
C1729       C  0.04841803  0.21354157  0.88225553    -0.06200
C1730       C  0.01864510  0.23841008  0.88689221    -0.00300
C1731       C  0.00983587  0.26467750  0.86332279    -0.08800
C1732       C  0.02745334  0.26136861  0.83384831    -0.06200
C1733       C  0.05508599  0.23419582  0.82814316    -0.00300
C1734       C  0.06743741  0.21146975  0.85338287    -0.08700
C1735       C  0.09902644  0.18396006  0.84951566     0.61600
H1736       H  0.05531290  0.19420027  0.90107457     0.12300
H1737       H  0.01875324  0.27925584  0.81457787     0.12300
C1738       C  0.98141568  0.29509876  0.86907441     0.61900
F1739       F  0.10622326  0.16431547  0.87707388    -0.23300
F1740       F  0.13097594  0.20314630  0.84141216    -0.20600
F1741       F  0.09022395  0.15857718  0.82620620    -0.20300
F1742       F  0.99269411  0.31646715  0.89444141    -0.20400
F1743       F  0.94713833  0.27959537  0.87569645    -0.20700
F1744       F  0.97755804  0.31840380  0.84314617    -0.23400
C1745       C  0.96111507  0.20436418  0.59683691    -0.06200
C1746       C  0.97292533  0.23283832  0.57669498    -0.00300
C1747       C  0.99913419  0.25932729  0.58817667    -0.08800
C1748       C  0.01464874  0.25450982  0.61864567    -0.06200
C1749       C  0.00525937  0.22399627  0.63782163    -0.00300
C1750       C  0.97687544  0.19912272  0.62702462    -0.08700
C1751       C  0.96256245  0.16710266  0.64706984     0.61600
H1752       H  0.94091151  0.18468095  0.58790557     0.12300
H1753       H  0.03589280  0.27351431  0.62694573     0.12300
C1754       C  0.01174944  0.29213937  0.56819851     0.61900
F1755       F  0.93026952  0.15179919  0.63482807    -0.23300
F1756       F  0.95445966  0.18004575  0.67678169    -0.20600
F1757       F  0.98891362  0.13909151  0.64897160    -0.20300
F1758       F  0.98170391  0.30805950  0.55273952    -0.20400
F1759       F  0.03757580  0.28023307  0.54629074    -0.20700
F1760       F  0.02809343  0.31951077  0.58652589    -0.23400
C1761       C  0.21468630  0.13175600  0.63173618    -0.06200
C1762       C  0.20285270  0.14157922  0.60120009    -0.00300
C1763       C  0.17810064  0.17219070  0.59771442    -0.08800
C1764       C  0.16153727  0.18756065  0.62500407    -0.06200
C1765       C  0.16993753  0.17439396  0.65555248    -0.00300
C1766       C  0.19905840  0.14789723  0.65899578    -0.08700
C1767       C  0.21182659  0.13451694  0.69112070     0.61600
H1768       H  0.23439265  0.10903072  0.63410357     0.12300
H1769       H  0.13991434  0.20844223  0.62257816     0.12300
C1770       C  0.16763712  0.18733187  0.56547733     0.61900
F1771       F  0.18293778  0.11653759  0.70616446    -0.23300
F1772       F  0.22331052  0.16472365  0.70875405    -0.20600
F1773       F  0.24136955  0.10981175  0.68913074    -0.20300
F1774       F  0.15022238  0.16000279  0.54813393    -0.20400
F1775       F  0.19940113  0.19895774  0.54992848    -0.20700
F1776       F  0.14364179  0.21746093  0.56747083    -0.23400
C1777       C  0.12248282  0.05968234  0.75184835    -0.06200
C1778       C  0.13724604  0.09374343  0.76244457    -0.00300
C1779       C  0.16968250  0.09328517  0.78182743    -0.08800
C1780       C  0.18532012  0.05875629  0.79025271    -0.06200
C1781       C  0.17061913  0.02500076  0.77949591    -0.00300
C1782       C  0.13879625  0.02521622  0.75969034    -0.08700
C1783       C  0.12292311  0.98958167  0.74573332     0.61600
H1784       H  0.09813011  0.06025933  0.73679092     0.12300
H1785       H  0.20974116  0.05778245  0.80524736     0.12300
C1786       C  0.18903724  0.12855796  0.79283476     0.61900
F1787       F  0.09566651  0.99687699  0.72340253    -0.23300
F1788       F  0.10711437  0.96816464  0.76934389    -0.20600
F1789       F  0.15084107  0.96944635  0.73112000    -0.20300
F1790       F  0.16623184  0.14760002  0.81329539    -0.20400
F1791       F  0.19747739  0.15098167  0.76729476    -0.20700
F1792       F  0.22201950  0.12102989  0.80859585    -0.23400
C1793       C  0.16725182  0.59849795  0.49645178    -0.06200
C1794       C  0.17254226  0.59996943  0.52939927    -0.00300
C1795       C  0.14872701  0.62255821  0.54766610    -0.08800
C1796       C  0.12204617  0.64503699  0.53215364    -0.06200
C1797       C  0.11971210  0.64670459  0.49901881    -0.00300
C1798       C  0.14161227  0.62214764  0.48085333    -0.08700
C1799       C  0.13846556  0.62198439  0.44514961     0.61600
H1800       H  0.18559051  0.58096594  0.48270285     0.12300
H1801       H  0.11125335  0.67019355  0.04837661     0.12300
C1802       C  0.15236663  0.62354661  0.58327909     0.61900
F1803       F  0.15943703  0.59371118  0.43188921    -0.23300
F1804       F  0.15071383  0.65560147  0.43294128    -0.20600
F1805       F  0.08935197  0.60779788  0.94569794    -0.20300
F1806       F  0.18623326  0.63887652  0.59166051    -0.20400
F1807       F  0.17997772  0.60502397  0.09927859    -0.20700
F1808       F  0.12267163  0.62917045  0.10118622    -0.23400
C1809       C  0.37798858  0.82706551  0.72294087    -0.06200
C1810       C  0.40560247  0.82208538  0.74583499    -0.00300
C1811       C  0.40523760  0.84530067  0.77294831    -0.08800
C1812       C  0.37377211  0.86805577  0.77863006    -0.06200
C1813       C  0.34355599  0.86852499  0.75767221    -0.00300
C1814       C  0.34708881  0.85012671  0.72816501    -0.08700
C1815       C  0.31831693  0.85429345  0.70216778     0.61600
H1816       H  0.37911340  0.80991001  0.70196322     0.12300
H1817       H  0.37145525  0.88352334  0.80044141     0.12300
C1818       C  0.43679691  0.84464626  0.79653538     0.61900
F1819       F  0.32991237  0.83805254  0.67426476    -0.23300
F1820       F  0.31239556  0.89170136  0.69623614    -0.20600
F1821       F  0.28540152  0.83742776  0.71092313    -0.20300
F1822       F  0.47011999  0.84968909  0.78087403    -0.20400
F1823       F  0.43714096  0.81097063  0.81229835    -0.20700
F1824       F  0.43340087  0.87274940  0.81865548    -0.23400
C1825       C  0.33091199  0.65042950  0.68228939    -0.06200
C1826       C  0.36029042  0.67493353  0.67570934    -0.00300
C1827       C  0.36481827  0.68814365  0.64426813    -0.08800
C1828       C  0.34310654  0.67238350  0.61988637    -0.06200
C1829       C  0.31710346  0.64408706  0.62601898    -0.00300
C1830       C  0.30874993  0.63532663  0.65798304    -0.08700
C1831       C  0.27799482  0.60865492  0.66734860     0.61600
H1832       H  0.32671236  0.64105272  0.70638912     0.12300
H1833       H  0.34928694  0.67928593  0.59558712     0.12300
C1834       C  0.39381687  0.71737704  0.63612341     0.61900
F1835       F  0.25700399  0.62428856  0.69124099    -0.23300
F1836       F  0.29351680  0.57573879  0.67823966    -0.20600
F1837       F  0.25421694  0.60094122  0.64250244    -0.20300
F1838       F  0.42889989  0.70160859  0.63654349    -0.20400
F1839       F  0.39241957  0.74617891  0.65772595    -0.20700
F1840       F  0.38778628  0.73238727  0.60638789    -0.23400
C1841       C  0.14794470  0.36569379  0.78594030    -0.06200
C1842       C  0.17928363  0.37443182  0.76765231    -0.00300
C1843       C  0.18091216  0.35907036  0.73655278    -0.08800
C1844       C  0.15458108  0.33238447  0.72683583    -0.06200
C1845       C  0.12537071  0.32088886  0.74610215    -0.00300
C1846       C  0.12036585  0.34001537  0.77537862    -0.08700
C1847       C  0.08916126  0.33040641  0.79770989     0.61600
H1848       H  0.14633981  0.37722060  0.80948848     0.12300
H1849       H  0.15789710  0.31840882  0.70438989     0.12300
C1850       C  0.21029995  0.37037063  0.71307156     0.61900
F1851       F  0.08316978  0.35868146  0.81927582    -0.23300
F1852       F  0.09870782  0.29853735  0.81407527    -0.20600
F1853       F  0.05627952  0.32515838  0.78140705    -0.20300
F1854       F  0.24438265  0.35650054  0.72237783    -0.20400
F1855       F  0.21081320  0.40866212  0.71106240    -0.20700
F1856       F  0.20311641  0.35695022  0.68306860    -0.23400
C1857       C  0.35548554  0.60688111  0.79269443    -0.06200
C1858       C  0.39344917  0.60195408  0.78643672    -0.00300
C1859       C  0.40977703  0.56661989  0.79111451    -0.08800
C1860       C  0.38669355  0.53646318  0.79942891    -0.06200
C1861       C  0.34775352  0.54034860  0.80337126    -0.00300
C1862       C  0.33215111  0.57687587  0.80125037    -0.08700
C1863       C  0.29133825  0.58491304  0.80749930     0.61600
H1864       H  0.34385045  0.63449072  0.78934626     0.12300
H1865       H  0.39920800  0.50915527  0.80189110     0.12300
C1866       C  0.45146924  0.56093958  0.78763300     0.61900
F1867       F  0.28350724  0.62271515  0.80652422    -0.23300
F1868       F  0.28152377  0.57194891  0.83703627    -0.20600
F1869       F  0.26965988  0.56791363  0.78492582    -0.20300
F1870       F  0.47035688  0.58765487  0.80484262    -0.20400
F1871       F  0.46142844  0.56387569  0.75623722    -0.20700
F1872       F  0.46259440  0.52622809  0.79853674    -0.23400
C1873       C  0.28599521  0.44132824  0.68002583    -0.06200
C1874       C  0.26743387  0.46180061  0.70325441    -0.00300
C1875       C  0.24470944  0.49269955  0.69380293    -0.08800
C1876       C  0.24497491  0.50405806  0.66196226    -0.06200
C1877       C  0.26616026  0.48529556  0.63952471    -0.00300
C1878       C  0.28536609  0.45226840  0.64821796    -0.08700
C1879       C  0.30372754  0.42774203  0.62372065     0.61600
H1880       H  0.30173770  0.41690361  0.68704735     0.12300
H1881       H  0.23019330  0.52895915  0.65461714     0.12300
C1882       C  0.22012978  0.51396260  0.71664836     0.61900
F1883       F  0.31561599  0.39414706  0.63642301    -0.23300
F1884       F  0.33431330  0.44538670  0.61084058    -0.20600
F1885       F  0.27809773  0.42006793  0.60030614    -0.20300
F1886       F  0.24200527  0.53424620  0.73704369    -0.20400
F1887       F  0.19806873  0.48940563  0.73350279    -0.20700
F1888       F  0.19674122  0.53880804  0.70123374    -0.23400
C1889       C  0.27925248  0.52443248  0.89828826    -0.06200
C1890       C  0.25346247  0.49566145  0.89244571    -0.00300
C1891       C  0.22549889  0.48826032  0.91492272    -0.08800
C1892       C  0.22648428  0.50783039  0.94377010    -0.06200
C1893       C  0.25450875  0.53418883  0.95057756    -0.00300
C1894       C  0.28036330  0.54384762  0.92695334    -0.08700
C1895       C  0.31073019  0.57236869  0.93275877     0.61600
H1896       H  0.30062429  0.52972731  0.88088706     0.12300
H1897       H  0.20674897  0.50094206  0.96217940     0.12300
C1898       C  0.19646931  0.45844108  0.90934167     0.61900
F1899       F  0.33336797  0.57715775  0.90664425    -0.23300
F1900       F  0.33288455  0.56095268  0.95768308    -0.20600
F1901       F  0.29475276  0.60640217  0.93974297    -0.20300
F1902       F  0.21365099  0.42458293  0.90429797    -0.20400
F1903       F  0.17539267  0.46770440  0.88313293    -0.20700
F1904       F  0.17277389  0.45448961  0.93486116    -0.23400
C1905       C  0.36061411  0.11937924  0.54805494    -0.06200
C1906       C  0.34961224  0.09680964  0.52294852    -0.00300
C1907       C  0.36360355  0.10003615  0.99318374    -0.08800
C1908       C  0.39060266  0.12817427  0.98874058    -0.06200
C1909       C  0.40338015  0.15380415  0.51387804    -0.00300
C1910       C  0.38704168  0.14793931  0.54409049    -0.08700
C1911       C  0.39472960  0.17360353  0.57158380     0.61600
H1912       H  0.34556360  0.11685913  0.57010041     0.12300
H1913       H  0.40157175  0.13369731  0.96538444     0.12300
C1914       C  0.35081336  0.07787232  0.96491237     0.61900
F1915       F  0.38143909  0.15913005  0.59974314    -0.23300
F1916       F  0.37742949  0.20746431  0.56640788    -0.20600
F1917       F  0.43260614  0.17856300  0.57486961    -0.20300
F1918       F  0.31694437  0.09152292  0.95475201    -0.20400
F1919       F  0.34752694  0.04063787  0.97292205    -0.20700
F1920       F  0.37569253  0.08056138  0.94010077    -0.23400
C1921       C  0.32490698  0.31416746  0.92524138    -0.06200
C1922       C  0.35445223  0.29025612  0.91786867    -0.00300
C1923       C  0.35915659  0.27940185  0.88584653    -0.08800
C1924       C  0.33980416  0.29920268  0.86185270    -0.06200
C1925       C  0.31410960  0.32738660  0.86935202    -0.00300
C1926       C  0.30342983  0.33130823  0.90144137    -0.08700
C1927       C  0.27071581  0.35500756  0.91140397     0.61600
H1928       H  0.31974440  0.32122928  0.94970131     0.12300
H1929       H  0.34683220  0.29468951  0.83731518     0.12300
C1930       C  0.38366849  0.24649145  0.87726951     0.61900
F1931       F  0.25041871  0.33639213  0.93426646    -0.23300
F1932       F  0.24703292  0.36218448  0.88631142    -0.20600
F1933       F  0.28346404  0.38827776  0.92374120    -0.20300
F1934       F  0.37508871  0.21647097  0.89651970    -0.20400
F1935       F  0.42074005  0.25513639  0.88111349    -0.20700
F1936       F  0.37820749  0.23576899  0.84625371    -0.23400
C1937       C  0.40071411  0.41345345  0.50597662    -0.06200
C1938       C  0.38563648  0.37899574  0.51500230    -0.00300
C1939       C  0.35087695  0.37812983  0.53094828    -0.08800
C1940       C  0.33329162  0.41204419  0.53792150    -0.06200
C1941       C  0.34951090  0.44664506  0.53093781    -0.00300
C1942       C  0.38353835  0.44744264  0.51388460    -0.08700
C1943       C  0.40197153  0.48361102  0.50389433     0.61600
H1944       H  0.42680655  0.41354431  0.49324002     0.12300
H1945       H  0.30665509  0.41167863  0.54956391     0.12300
C1946       C  0.33361837  0.34010141  0.04177935     0.61900
F1947       F  0.43062859  0.47768154  0.48268927    -0.23300
F1948       F  0.41670276  0.50086256  0.53017259    -0.20600
F1949       F  0.37631102  0.50684112  0.48943309    -0.20300
F1950       F  0.35220831  0.32378559  0.56328750    -0.20400
F1951       F  0.32890148  0.31720778  0.01595182    -0.20700
F1952       F  0.29888424  0.34578691  0.05502925    -0.23400
C1953       C  0.88584850  0.31861167  0.53650962    -0.06200
C1954       C  0.89466474  0.32175283  0.50430645    -0.00300
C1955       C  0.88164277  0.35308307  0.48719545    -0.08800
C1956       C  0.85825657  0.37918558  0.50261666    -0.06200
C1957       C  0.84723772  0.37435429  0.53435155    -0.00300
C1958       C  0.86283100  0.34454176  0.55191744    -0.08700
C1959       C  0.85478066  0.33814351  0.58663138     0.61600
H1960       H  0.89600181  0.29465024  0.54965222     0.12300
H1961       H  0.84583966  0.40177718  0.48918918     0.12300
C1962       C  0.88716431  0.35033560  0.95109779     0.61900
F1963       F  0.88777566  0.33127142  0.60251778    -0.23300
F1964       F  0.83175582  0.30752397  0.58993668    -0.20600
F1965       F  0.83806214  0.36860806  0.60065191    -0.20300
F1966       F  0.87698500  0.32797888  0.43565999    -0.20400
F1967       F  0.92453217  0.35333681  0.94373529    -0.20700
F1968       F  0.86894769  0.38125027  0.93890272    -0.23400
C1969       C  0.59305481  0.31092231  0.99302294    -0.06200
C1970       C  0.55911700  0.32864423  0.99973501    -0.00300
C1971       C  0.55601613  0.36728304  0.51983747    -0.08800
C1972       C  0.58986111  0.38488868  0.52814772    -0.06200
C1973       C  0.62467402  0.37127372  0.51817859    -0.00300
C1974       C  0.62560909  0.33842799  0.49946393    -0.08700
C1975       C  0.66150131  0.32247691  0.48608275     0.61600
H1976       H  0.59252238  0.28303103  0.98416487     0.12300
H1977       H  0.58938524  0.40979666  0.54253265     0.12300
C1978       C  0.51943741  0.38379834  0.53107984     0.61900
F1979       F  0.65551833  0.29017497  0.46904539    -0.23300
F1980       F  0.68591691  0.31382464  0.51017664    -0.20600
F1981       F  0.67941589  0.33241871  0.96281959    -0.20300
F1982       F  0.49888993  0.35692649  0.54679679    -0.20400
F1983       F  0.50620174  0.39638457  0.99437807    -0.20700
F1984       F  0.53217271  0.41812667  0.03856134    -0.23400
C1985       C  0.64519551  0.14488718  0.72621771    -0.06200
C1986       C  0.61640539  0.14964022  0.74783482    -0.00300
C1987       C  0.61471559  0.12503023  0.77423292    -0.08800
C1988       C  0.64483794  0.10025838  0.78022659    -0.06200
C1989       C  0.67628499  0.09948303  0.76062810    -0.00300
C1990       C  0.67522244  0.12074105  0.73199988    -0.08700
C1991       C  0.70551032  0.11888357  0.70722443     0.61600
H1992       H  0.64559935  0.16317640  0.70579925     0.12300
H1993       H  0.64520832  0.08334214  0.80145298     0.12300
C1994       C  0.58233734  0.12616793  0.79680011     0.61900
F1995       F  0.69682605  0.13937192  0.68041377    -0.23300
F1996       F  0.70993867  0.08246729  0.69797819    -0.20600
F1997       F  0.73836155  0.13292306  0.71904186    -0.20300
F1998       F  0.54951608  0.12278155  0.78002055    -0.20400
F1999       F  0.58267267  0.15943119  0.81294058    -0.20700
F2000       F  0.58383723  0.09740473  0.81865939    -0.23400
C2001       C  0.41711573  0.34998911  0.79918360    -0.06200
C2002       C  0.40251434  0.37665851  0.77830495    -0.00300
C2003       C  0.42069358  0.38400296  0.74933922    -0.08800
C2004       C  0.45205904  0.36244732  0.74158167    -0.06200
C2005       C  0.46479094  0.33375826  0.76148811    -0.00300
C2006       C  0.44844623  0.32874307  0.79141398    -0.08700
C2007       C  0.46456815  0.30183676  0.81532584     0.61600
H2008       H  0.40309373  0.34516252  0.82145220     0.12300
H2009       H  0.46693106  0.36784627  0.71988564     0.12300
C2010       C  0.40811682  0.41526314  0.72749225     0.61900
F2011       F  0.44797854  0.30576255  0.84452079    -0.23300
F2012       F  0.50223324  0.30838346  0.81906571    -0.20600
F2013       F  0.45901452  0.26587988  0.80498794    -0.20300
F2014       F  0.40593228  0.44823441  0.74422438    -0.20400
F2015       F  0.37365088  0.40712710  0.71476848    -0.20700
F2016       F  0.43269378  0.42056243  0.70274840    -0.23400
C2017       C  0.56653541  0.24273164  0.86490697    -0.06200
C2018       C  0.54515512  0.22633753  0.84124833    -0.00300
C2019       C  0.51138860  0.20762015  0.84963466    -0.08800
C2020       C  0.49744078  0.21216447  0.88024445    -0.06200
C2021       C  0.51658879  0.23318533  0.90249163    -0.00300
C2022       C  0.55285244  0.24617221  0.89559067    -0.08700
C2023       C  0.57705199  0.26332723  0.92062338     0.61600
H2024       H  0.59285330  0.25549167  0.85871614     0.12300
H2025       H  0.47062301  0.20039321  0.88643723     0.12300
C2026       C  0.48890861  0.18205355  0.82839518     0.61900
F2027       F  0.61295711  0.26969737  0.91009813    -0.23300
F2028       F  0.57887062  0.23891732  0.94590964    -0.20600
F2029       F  0.56209563  0.29704448  0.92974035    -0.20300
F2030       F  0.50475835  0.17639966  0.79928701    -0.20400
F2031       F  0.45354523  0.19648048  0.82416724    -0.20700
F2032       F  0.48567430  0.14756675  0.84288396    -0.23400
C2033       C  0.52255104  0.23236607  0.63097272    -0.06200
C2034       C  0.50304752  0.25296565  0.65323496    -0.00300
C2035       C  0.46826000  0.26914649  0.64528067    -0.08800
C2036       C  0.45538123  0.26638442  0.61405243    -0.06200
C2037       C  0.47653580  0.24850351  0.59088179    -0.00300
C2038       C  0.51011158  0.22965668  0.59974065    -0.08700
C2039       C  0.53366445  0.20714596  0.57679641     0.61600
H2040       H  0.54890666  0.22008042  0.63791824     0.12300
H2041       H  0.42968670  0.27999468  0.60715938     0.12300
C2042       C  0.44526911  0.28993842  0.66941101     0.61900
F2043       F  0.55973003  0.18529920  0.59235061    -0.23300
F2044       F  0.55283804  0.23086288  0.55679234    -0.20600
F2045       F  0.51130365  0.18346696  0.55944796    -0.20300
F2046       F  0.46286846  0.32288564  0.67688609    -0.20400
F2047       F  0.44120159  0.26840746  0.69632732    -0.20700
F2048       F  0.41006789  0.29842105  0.65811441    -0.23400
C2049       C  0.65629659  0.28590250  0.64451639    -0.06200
C2050       C  0.66477540  0.29721822  0.67541768    -0.00300
C2051       C  0.69505378  0.32186823  0.68008302    -0.08800
C2052       C  0.71307984  0.33714761  0.65354813    -0.06200
C2053       C  0.70077987  0.33032397  0.62262554    -0.00300
C2054       C  0.67341052  0.30233770  0.61791705    -0.08700
C2055       C  0.65973265  0.29213668  0.58532162     0.61600
H2056       H  0.63342372  0.26662249  0.64130513     0.12300
H2057       H  0.73429860  0.35807187  0.65688222     0.12300
C2058       C  0.70465508  0.33662449  0.71242347     0.61900
F2059       F  0.63430458  0.26315164  0.58607029    -0.23300
F2060       F  0.68948703  0.28107235  0.56701615    -0.20600
F2061       F  0.64249619  0.32259852  0.57176568    -0.20300
F2062       F  0.71183429  0.30741960  0.73294588    -0.20400
F2063       F  0.67495496  0.35738330  0.72306111    -0.20700
F2064       F  0.73570419  0.35943651  0.71196940    -0.23400
C2065       C  0.85530236  0.59352158  0.74933296    -0.06200
C2066       C  0.85232953  0.59417158  0.78251333    -0.00300
C2067       C  0.87468023  0.61954212  0.79963845    -0.08800
C2068       C  0.89797395  0.64430926  0.78291080    -0.06200
C2069       C  0.89834322  0.64591083  0.74970158    -0.00300
C2070       C  0.87684476  0.61996400  0.73258720    -0.08700
C2071       C  0.87493508  0.62190080  0.69689537     0.61600
H2072       H  0.83741927  0.57469071  0.73638054     0.12300
H2073       H  0.91399595  0.66460016  0.79605881     0.12300
C2074       C  0.87359237  0.62293025  0.83529103     0.61900
F2075       F  0.85501841  0.59239299  0.68440984    -0.23300
F2076       F  0.91050297  0.62097359  0.68452384    -0.20600
F2077       F  0.85771342  0.65471413  0.68772334    -0.20300
F2078       F  0.85296427  0.59502595  0.84950564    -0.20400
F2079       F  0.85837772  0.65704039  0.84328775    -0.20700
F2080       F  0.90943913  0.62096730  0.84714855    -0.23400
C2081       C  0.63891585  0.43674780  0.79606042    -0.06200
C2082       C  0.67811742  0.43469498  0.79693945    -0.00300
C2083       C  0.69537346  0.39913696  0.79257579    -0.08800
C2084       C  0.67240969  0.36763386  0.78827308    -0.06200
C2085       C  0.63376908  0.37083735  0.78456891    -0.00300
C2086       C  0.61655298  0.40574358  0.78902000    -0.08700
C2087       C  0.57460603  0.41007265  0.78671297     0.61600
H2088       H  0.62556578  0.46325298  0.80013153     0.12300
H2089       H  0.68472862  0.34037251  0.78500945     0.12300
C2090       C  0.73744507  0.39393345  0.79052261     0.61900
F2091       F  0.56300351  0.44517044  0.79597540    -0.23300
F2092       F  0.55749875  0.38404820  0.80600208    -0.20600
F2093       F  0.56313348  0.40479202  0.75591433    -0.20300
F2094       F  0.75431306  0.40274444  0.81884818    -0.20400
F2095       F  0.75159516  0.41635480  0.76677297    -0.20700
F2096       F  0.74710243  0.35750475  0.78357124    -0.23400
C2097       C  0.63011773  0.64399987  0.77737657    -0.06200
C2098       C  0.63168180  0.60570578  0.77180076    -0.00300
C2099       C  0.60055706  0.58699426  0.75935522    -0.08800
C2100       C  0.56841407  0.60777101  0.75232835    -0.06200
C2101       C  0.56626173  0.64632424  0.75836574    -0.00300
C2102       C  0.59767028  0.66475643  0.77162430    -0.08700
C2103       C  0.59667912  0.70524925  0.78187131     0.61600
H2104       H  0.65442612  0.65727113  0.78744188     0.12300
H2105       H  0.54452521  0.59378657  0.74225427     0.12300
C2106       C  0.60144710  0.54531906  0.75388343     0.61900
F2107       F  0.62867996  0.71544962  0.79784468    -0.23300
F2108       F  0.56695702  0.71043291  0.80200267    -0.20600
F2109       F  0.59343043  0.72854634  0.75595396    -0.20300
F2110       F  0.60590035  0.52715020  0.78243893    -0.20400
F2111       F  0.63086091  0.53647626  0.73427594    -0.20700
F2112       F  0.56893915  0.53261370  0.74004368    -0.23400
C2113       C  0.75311244  0.52528573  0.65035471    -0.06200
C2114       C  0.76623511  0.48907259  0.64531980    -0.00300
C2115       C  0.78611999  0.47083576  0.66952426    -0.08800
C2116       C  0.78650731  0.48704507  0.69975053    -0.06200
C2117       C  0.76931326  0.52176210  0.70579460    -0.00300
C2118       C  0.75522271  0.54270820  0.67995367    -0.08700
C2119       C  0.74117757  0.58244773  0.68329614     0.61600
H2120       H  0.74025185  0.53939737  0.63100840     0.12300
H2121       H  0.79953213  0.47214855  0.71911042     0.12300
C2122       C  0.80635189  0.43452312  0.66337587     0.61900
F2123       F  0.73121390  0.59785225  0.65449532    -0.23300
F2124       F  0.76887932  0.60463431  0.69593304    -0.20600
F2125       F  0.71022792  0.58307583  0.70257640    -0.20300
F2126       F  0.83321355  0.44027369  0.64053572    -0.20400
F2127       F  0.78159314  0.40791080  0.65286880    -0.20700
F2128       F  0.82377137  0.42098575  0.69025098    -0.23400
C2129       C  0.74119549  0.43178825  0.93660031    -0.06200
C2130       C  0.77096122  0.44145240  0.95585187    -0.00300
C2131       C  0.79784276  0.46743334  0.94483305    -0.08800
C2132       C  0.79268279  0.48414320  0.91498757    -0.06200
C2133       C  0.76109799  0.47665941  0.89661207    -0.00300
C2134       C  0.73476265  0.44966079  0.90771352    -0.08700
C2135       C  0.69932856  0.43946670  0.89008456     0.61600
H2136       H  0.72086253  0.41235921  0.94591343     0.12300
H2137       H  0.81262541  0.50460494  0.90668121     0.12300
C2138       C  0.83191703  0.47906729  0.96354264     0.61900
F2139       F  0.68097154  0.40951339  0.90367218    -0.23300
F2140       F  0.70818618  0.42937757  0.85986105    -0.20600
F2141       F  0.67476886  0.46914791  0.88974080    -0.20300
F2142       F  0.83700245  0.45846802  0.99077660    -0.20400
F2143       F  0.82867043  0.51622841  0.97164311    -0.20700
F2144       F  0.86332240  0.47458026  0.94510401    -0.23400
C2145       C  0.62857418  0.84557216  0.99719639    -0.06200
C2146       C  0.62406053  0.81853090  0.51600589    -0.00300
C2147       C  0.64167500  0.82146408  0.54602845    -0.08800
C2148       C  0.66632596  0.85106900  0.55156676    -0.06200
C2149       C  0.67359019  0.87807822  0.52856699    -0.00300
C2150       C  0.65140627  0.87832793  0.50067820    -0.08700
C2151       C  0.65412198  0.90797616  0.97974840     0.61600
H2152       H  0.61283981  0.84415384  0.97540922     0.12300
H2153       H  0.68278439  0.85154839  0.57302140     0.12300
C2154       C  0.63527914  0.79337289  0.57221300     0.61900
F2155       F  0.68843768  0.90838719  0.96527432    -0.23300
F2156       F  0.64835704  0.94107362  0.99558047    -0.20600
F2157       F  0.62872251  0.90524992  0.45236523    -0.20300
F2158       F  0.65016121  0.75931804  0.56402106    -0.20400
F2159       F  0.59762236  0.79009749  0.57754871    -0.20700
F2160       F  0.65165308  0.80420355  0.60033315    -0.23400
C2161       C  0.43159360  0.66448853  0.99809579    -0.06200
C2162       C  0.46519519  0.64492686  0.00249131    -0.00300
C2163       C  0.46253683  0.61272621  0.51234737    -0.08800
C2164       C  0.42817425  0.59723240  0.52111644    -0.06200
C2165       C  0.39474047  0.61714331  0.51835820    -0.00300
C2166       C  0.39672783  0.64908404  0.00562474    -0.08700
C2167       C  0.36170429  0.67195176  0.99989109     0.61600
H2168       H  0.43269506  0.69234443  0.98874348     0.12300
H2169       H  0.42710877  0.56923519  0.53055208     0.12300
C2170       C  0.49775741  0.58983733  0.51739401     0.61900
F2171       F  0.36963005  0.70734685  0.98864417    -0.23300
F2172       F  0.34217664  0.67579497  0.02778172    -0.20600
F2173       F  0.33959027  0.65450532  0.97771188    -0.20300
F2174       F  0.52310515  0.60993380  0.53510853    -0.20400
F2175       F  0.51321515  0.58070112  0.48858230    -0.20700
F2176       F  0.49075706  0.55686262  0.53340915    -0.23400
C2177       C  0.56375500  0.70266904  0.61104527    -0.06200
C2178       C  0.54635099  0.72679457  0.58959201    -0.00300
C2179       C  0.51762403  0.75110193  0.60024494    -0.08800
C2180       C  0.50538853  0.74785078  0.63155916    -0.06200
C2181       C  0.52038872  0.72115684  0.65203659    -0.00300
C2182       C  0.55120330  0.69918539  0.64225004    -0.08700
C2183       C  0.57122798  0.67243642  0.66446631     0.61600
H2184       H  0.58614449  0.68505892  0.60269028     0.12300
H2185       H  0.48227642  0.76463407  0.63974444     0.12300
C2186       C  0.49883019  0.77974763  0.57891722     0.61900
F2187       F  0.60378240  0.65885864  0.65135383    -0.23300
F2188       F  0.54880026  0.64222895  0.67137842    -0.20600
F2189       F  0.58057285  0.69071439  0.69199959    -0.20300
F2190       F  0.47467118  0.76201623  0.55847186    -0.20400
F2191       F  0.52506380  0.79940891  0.56181488    -0.20700
F2192       F  0.47848183  0.80538875  0.59612527    -0.23400
C2193       C  0.52896528  0.75895193  0.87988698    -0.06200
C2194       C  0.51041404  0.73717553  0.90216350    -0.00300
C2195       C  0.47426225  0.72372125  0.89523120    -0.08800
C2196       C  0.46035517  0.72734306  0.86446741    -0.06200
C2197       C  0.48090088  0.74516402  0.84087630    -0.00300
C2198       C  0.51426856  0.76443291  0.84946116    -0.08700
C2199       C  0.53514484  0.79201811  0.82872778     0.61600
H2200       H  0.55567217  0.77100585  0.88600736     0.12300
H2201       H  0.43424647  0.71418517  0.85824991     0.12300
C2202       C  0.45006960  0.70655342  0.92047318     0.61900
F2203       F  0.53676768  0.82596704  0.84405026    -0.23300
F2204       F  0.51862225  0.79817770  0.79984488    -0.20600
F2205       F  0.57113566  0.77962717  0.82395183    -0.20300
F2206       F  0.44797015  0.73111824  0.94544080    -0.20400
F2207       F  0.46501244  0.67301417  0.93034184    -0.20700
F2208       F  0.41423268  0.69990780  0.90984926    -0.23400
C2209       C  0.70283843  0.65874965  0.92799107    -0.06200
C2210       C  0.67180645  0.68094184  0.92056786    -0.00300
C2211       C  0.66498724  0.69032808  0.88849214    -0.08800
C2212       C  0.68417674  0.67078580  0.86482729    -0.06200
C2213       C  0.71119642  0.64398287  0.87250672    -0.00300
C2214       C  0.72347561  0.64098410  0.90418939    -0.08700
C2215       C  0.75647760  0.61717737  0.91371516     0.61600
H2216       H  0.70911858  0.65257216  0.95250269     0.12300
H2217       H  0.67581237  0.67436558  0.84042755     0.12300
C2218       C  0.63616491  0.71890129  0.87832957     0.61900
F2219       F  0.77743309  0.63567338  0.93617086    -0.23300
F2220       F  0.77947218  0.60980846  0.88830961    -0.20600
F2221       F  0.74402217  0.58389087  0.92637674    -0.20300
F2222       F  0.62419368  0.74073536  0.90317558    -0.20400
F2223       F  0.60589600  0.70086423  0.86522402    -0.20700
F2224       F  0.65148617  0.74253303  0.85599966    -0.23400
C2225       C  0.64538521  0.59484480  0.54602051    -0.06200
C2226       C  0.63083466  0.59400070  0.51513276    -0.00300
C2227       C  0.64513009  0.55799221  0.99580289    -0.08800
C2228       C  0.66545921  0.52733597  0.00760054    -0.06200
C2229       C  0.67633789  0.53558635  0.53880805    -0.00300
C2230       C  0.66862304  0.56671978  0.55782700    -0.08700
C2231       C  0.68589027  0.57077127  0.59010548     0.61600
H2232       H  0.63949112  0.61856060  0.56089519     0.12300
H2233       H  0.67181139  0.50390149  0.99247288     0.12300
C2234       C  0.63424240  0.55814383  0.96110524     0.61900
F2235       F  0.67314936  0.60206977  0.60579122    -0.23300
F2236       F  0.72394426  0.57410916  0.58641355    -0.20600
F2237       F  0.67755201  0.53986929  0.60838838    -0.20300
F2238       F  0.64910426  0.58914000  0.94627581    -0.20400
F2239       F  0.59590890  0.55840817  0.95824839    -0.20700
F2240       F  0.64738019  0.52698491  0.94543742    -0.23400
loop_ 
_geom_bond_atom_site_label_1 
_geom_bond_atom_site_label_2 
_geom_bond_distance 
_geom_bond_site_symmetry_2 
_ccdc_geom_bond_type 
O1           C16   1.267       .  A
O1           Al9   1.887       .  S
C2           O12   1.250       .  A
C2            O3   1.269       .  A
C2         C1058   1.467       .  S
O3           Al5   1.930       .  S
O4            C6   1.252       .  A
O4           Al5   1.885       .  S
Al5        O1133   1.884       .  S
Al5        O1135   1.957   1_554  S
Al5        O1134   1.777   1_554  S
C6         O1139   1.255   1_554  A
C6         C1106   1.500       .  S
O7           C17   1.262       .  A
O7           Al9   1.882       .  S
O8           C21   1.263       .  A
O8          Al18   1.911       .  S
Al9          O22   1.910       .  S
Al9          O19   1.931       .  S
Al9          O14   1.784       .  S
O10          C17   1.273       .  A
O10         Al18   1.930       .  S
O11          C20   1.267       .  A
O11         Al18   1.947       .  S
O12       Al1138   1.841   1_554  S
O13          C20   1.257       .  A
O13       Al1125   1.880       .  S
O14         Al18   1.784       .  S
O14       Al1125   1.767       .  S
O15          C16   1.279       .  A
O15       Al1125   1.970       .  S
C16        C1090   1.491       .  S
C17        C1042   1.487       .  S
Al18       O1132   1.851       .  S
O19        C1126   1.256       .  A
C20        C2146   1.486       .  S
C21          O22   1.260       .  A
C21        C1074   1.471       .  S
O23          C38   1.261       .  A
O23         Al31   1.887       .  S
C24          O34   1.256       .  A
C24          O25   1.270       .  A
C24         C997   1.469       .  S
O25         Al27   1.954       .  S
O26          C28   1.256       .  A
O26         Al27   1.894       .  S
Al27         O35   1.887       .  S
Al27         O37   1.956       .  S
Al27         O36   1.780       .  S
C28          O41   1.258       .  A
C28         C978   1.482       .  S
O29          C39   1.262       .  A
O29         Al31   1.873       .  S
O30          C43   1.269       .  A
O30         Al40   1.931       .  S
Al31         O44   1.909       .  S
Al31         O41   1.923       .  S
Al31         O36   1.778       .  S
O32          C39   1.270       .  A
O32         Al40   1.955       .  S
O33          C42   1.268       .  A
O33         Al40   1.958       .  S
O34         Al40   1.859       .  S
O35          C42   1.256       .  A
O36         Al40   1.791       .  S
O37          C38   1.275       .  A
C38        C1093   1.492       .  S
C39         C962   1.499       .  S
C42         C946   1.493       .  S
C43          O44   1.261       .  A
C43        C1013   1.479       .  S
O45          C60   1.260       .  A
O45         Al53   1.916       .  S
C46          O56   1.271       .  A
C46          O47   1.249       .  A
C46         C898   1.477       .  S
O47         Al49   1.845       .  S
O48          C50   1.275       .  A
O48         Al49   1.957       .  S
Al49         O57   1.974       .  S
Al49         O59   1.902       .  S
Al49         O58   1.779       .  S
C50          O63   1.260       .  A
C50         C885   1.476       .  S
O51          C61   1.259       .  A
O51         Al53   1.911       .  S
O52          C65   1.275       .  A
O52         Al62   1.973       .  S
Al53         O66   1.882       .  S
Al53         O63   1.878       .  S
Al53         O58   1.779       .  S
O54          C61   1.256       .  A
O54         Al62   1.895       .  S
O55          C64   1.256       .  A
O55         Al62   1.859       .  S
O56         Al62   1.951       .  S
O57          C64   1.270       .  A
O58         Al62   1.775       .  S
O59          C60   1.260       .  A
C60         C914   1.472       .  S
C61         C965   1.470       .  S
C64         C866   1.491       .  S
C65          O66   1.264       .  A
C65         C930   1.495       .  S
O67          C82   1.260       .  A
O67         Al75   1.884       .  S
C68          O78   1.277       .  A
C68          O69   1.250       .  A
C68        C1010   1.489       .  S
O69       Al1191   1.851       .  S
O70          C72   1.271       .  A
O70         Al71   1.951       .  S
Al71         O79   1.948       .  S
Al71         O81   1.923       .  S
Al71       O1189   1.857       .  S
Al71         O80   1.793       .  S
C72          O85   1.261       .  A
C72        C1109   1.472       .  S
O73          C83   1.256       .  A
O73         Al75   1.898       .  S
O74          C87   1.274       .  A
O74         Al84   1.971       .  S
Al75         O88   1.883       .  S
Al75         O85   1.883       .  S
Al75         O80   1.771       .  S
O76          C83   1.257       .  A
O76         Al84   1.909       .  S
O77          C86   1.257       .  A
O77         Al84   1.889       .  S
O78       Al1204   1.974       .  S
O79          C86   1.267       .  A
O80         Al84   1.777       .  S
O81          C82   1.266       .  A
C82         C994   1.494       .  S
C83         C853   1.484       .  S
Al84       O1198   1.941   1_554  S
C86         C837   1.487       .  S
C87          O88   1.264       .  A
C87         C933   1.489       .  S
O89         C104   1.265       .  A
O89         Al97   1.886       .  S
C90         O100   1.248       .  A
C90          O91   1.273       .  A
C90         C917   1.480       .  S
O91         Al93   1.955       .  S
O92          C94   1.251       .  A
O92         Al93   1.885       .  S
Al93       O1221   1.878   1_554  S
Al93       O1223   1.982   1_554  S
Al93       O1222   1.769   1_554  S
C94        O1227   1.260   1_554  A
C94         C818   1.487       .  S
O95         C105   1.264       .  A
O95         Al97   1.903       .  S
O96         C109   1.262       .  A
O96        Al106   1.906       .  S
Al97        O110   1.922       .  S
Al97        O107   1.927       .  S
Al97        O102   1.777       .  S
O98         C105   1.276       .  A
O98        Al106   1.957       .  S
O99         C108   1.268       .  A
O99        Al106   1.966       .  S
O100      Al1226   1.841   1_554  S
O101        C108   1.254       .  A
O101      Al1213   1.876       .  S
O102       Al106   1.777       .  S
O102      Al1213   1.773       .  S
O103        C104   1.278       .  A
O103      Al1213   1.968       .  S
C104        C802   1.487       .  S
C105        C850   1.500       .  S
Al106      O1220   1.834       .  S
O107       C1214   1.260       .  A
C108       C1909   1.490       .  S
C109        O110   1.263       .  A
C109        C901   1.471       .  S
O111        C126   1.263       .  A
O111       Al119   1.865       .  S
C112        O122   1.249       .  A
C112        O113   1.268       .  A
C112        C754   1.482       .  S
O113       Al115   1.929       .  S
O114        C116   1.249       .  A
O114       Al115   1.891       .  S
Al115       O123   1.889       .  S
Al115       O125   1.989       .  S
Al115       O124   1.771       .  S
C116        O129   1.256       .  A
C116        C882   1.483       .  S
O117        C127   1.265       .  A
O117       Al119   1.867       .  S
O118        C131   1.272       .  A
O118       Al128   1.945       .  S
Al119       O132   1.883       .  S
Al119       O129   1.923       .  S
Al119       O124   1.778       .  S
O120        C127   1.275       .  A
O120       Al128   1.963       .  S
O121        C130   1.279       .  A
O121       Al128   1.999       .  S
O122       Al128   1.858       .  S
O123        C130   1.259       .  A
O124       Al128   1.792       .  S
O125        C126   1.282       .  A
C126        C805   1.493       .  S
C127        C741   1.494       .  S
C130        C722   1.521       .  S
C131        O132   1.256       .  A
C131        C770   1.493       .  S
O133        C148   1.257       .  A
O133       Al141   1.896       .  S
C134        O144   1.275       .  A
C134        O135   1.252       .  A
C134       C1077   1.479       .  S
O135       Al137   1.854       .  S
O136        C138   1.269       .  A
O136       Al137   1.942       .  S
Al137       O145   1.973       .  S
Al137       O147   1.900       .  S
Al137       O146   1.782       .  S
C138        O151   1.267       .  A
C138        C981   1.506       .  S
O139        C149   1.255       .  A
O139       Al141   1.892       .  S
O140        C153   1.274       .  A
O140       Al150   1.965       .  S
Al141       O154   1.893       .  S
Al141       O151   1.909       .  S
Al141       O146   1.775       .  S
O142        C149   1.255       .  A
O142       Al150   1.890       .  S
O143        C152   1.253       .  A
O143       Al150   1.862       .  S
O144       Al150   1.956       .  S
O145        C152   1.268       .  A
O146       Al150   1.774       .  S
O147        C148   1.265       .  A
C148       C1061   1.471       .  S
C149        C738   1.466       .  S
C152        C690   1.493       .  S
C153        O154   1.265       .  A
C153        C706   1.491       .  S
O155        C170   1.257       .  A
O155       Al163   1.893       .  S
C156        O166   1.276       .  A
C156        O157   1.258       .  A
C156        C773   1.485       .  S
O157      Al1279   1.863       .  S
O158        C160   1.274       .  A
O158       Al159   1.946       .  S
Al159       O167   1.940       .  S
Al159       O169   1.923       .  S
Al159      O1277   1.854       .  S
Al159       O168   1.785       .  S
C160        O173   1.262       .  A
C160        C821   1.494       .  S
O161        C171   1.256       .  A
O161       Al163   1.904       .  S
O162        C175   1.278       .  A
O162       Al172   1.972       .  S
Al163       O176   1.886       .  S
Al163       O173   1.895       .  S
Al163       O168   1.778       .  S
O164        C171   1.257       .  A
O164       Al172   1.907       .  S
O165        C174   1.259       .  A
O165       Al172   1.898       .  S
O166      Al1292   1.972       .  S
O167        C174   1.265       .  A
O168       Al172   1.776       .  S
O169        C170   1.266       .  A
C170        C757   1.473       .  S
C171       C1045   1.487       .  S
Al172      O1286   1.963   1_554  S
C174        C674   1.489       .  S
C175        O176   1.262       .  A
C175        C709   1.487       .  S
O177        C192   1.264       .  A
O177       Al185   1.875       .  S
C178        O188   1.254       .  A
C178        O179   1.276       .  A
C178        C613   1.492       .  S
O179       Al181   1.969       .  S
O180        C182   1.252       .  A
O180       Al181   1.895       .  S
Al181       O189   1.879       .  S
Al181       O191   1.999       .  S
Al181       O190   1.774       .  S
C182        O195   1.261       .  A
C182        C658   1.497       .  S
O183        C193   1.261       .  A
O183       Al185   1.886       .  S
O184        C197   1.271       .  A
O184       Al194   1.939       .  S
Al185       O198   1.927       .  S
Al185       O195   1.930       .  S
Al185       O190   1.779       .  S
O186        C193   1.276   1_655  A
O186       Al194   1.954   1_655  S
O187        C196   1.271       .  A
O187       Al194   1.980       .  S
O188       Al194   1.856       .  S
O189        C196   1.257       .  A
O190       Al194   1.786       .  S
O191        C192   1.282       .  A
C192        C645   1.504       .  S
C193        C594   1.495   1_455  S
C196        C725   1.511       .  S
C197        O198   1.263       .  A
C197        C629   1.495       .  S
O199        C214   1.265       .  A
O199       Al207   1.893       .  S
C200        O210   1.256       .  A
C200        O201   1.272       .  A
C200        C565   1.487       .  S
O201      Al1323   1.947       .  S
O202        C204   1.247   1_556  A
O202       Al203   1.887   1_556  S
Al203       O211   1.876       .  S
Al203       O213   1.982       .  S
Al203      O1321   1.945   1_554  S
Al203       O212   1.781       .  S
C204        O217   1.255       .  A
C204        C549   1.484   1_554  S
O205        C215   1.264   1_545  A
O205       Al207   1.897       .  S
O206        C219   1.266   1_545  A
O206       Al216   1.926       .  S
Al207       O220   1.897       .  S
Al207       O217   1.898       .  S
Al207       O212   1.782       .  S
O208        C215   1.273       .  A
O208       Al216   1.945   1_565  S
O209        C218   1.265       .  A
O209       Al216   1.947       .  S
O210      Al1336   1.863       .  S
O211        C218   1.254       .  A
O212       Al216   1.792       .  S
O213        C214   1.280       .  A
C214        C642   1.499       .  S
C215        C533   1.497       .  S
Al216      O1330   1.865   1_554  S
C218        C786   1.488       .  S
C219        O220   1.255   1_565  A
C219        C581   1.487       .  S
O221        C236   1.262       .  A
O221       Al229   1.905       .  S
C222        O232   1.275       .  A
C222        O223   1.258       .  A
C222        C498   1.488       .  S
O223      Al1345   1.876   1_554  S
O224       C1346   1.273       .  A
O224      Al1345   1.942   1_655  S
Al225       O233   1.953       .  S
Al225       O235   1.912       .  S
Al225      O1343   1.859       .  S
Al225      O1344   1.946   1_455  S
Al225       O234   1.787       .  S
C226        O239   1.261       .  A
C226       O1344   1.274   1_455  A
C226        C469   1.496   1_455  S
O227       C1357   1.261       .  A
O227       Al229   1.919       .  S
O228        C241   1.275       .  A
O228      Al1358   1.967       .  S
Al229       O242   1.891       .  S
Al229       O239   1.890       .  S
Al229       O234   1.777       .  S
O230        C237   1.257   1_554  A
O230       Al238   1.902   1_554  S
O231       C1360   1.256       .  A
O231       Al238   1.886       .  S
O232       Al238   1.970   1_554  S
O233        C240   1.267       .  A
O234      Al1358   1.773       .  S
O235        C236   1.264       .  A
C236        C517   1.474   1_455  S
C237       O1347   1.261       .  A
C237        C530   1.493       .  S
Al238      O1348   1.975       .  S
Al238      O1354   1.776       .  S
C240       O1351   1.255       .  A
C240       C1797   1.483       .  S
C241        O242   1.261       .  A
C241        C482   1.494       .  S
O243        C258   1.257       .  A
O243       Al251   1.884       .  S
C244        O254   1.268       .  A
C244        O245   1.250       .  A
C244        C578   1.479       .  S
O245       Al247   1.858       .  S
O246        C248   1.276       .  A
O246       Al247   1.955       .  S
Al247       O255   1.956       .  S
Al247       O257   1.926       .  S
Al247       O256   1.788       .  S
C248        O261   1.264       .  A
C248        C661   1.483   1_565  S
O249        C259   1.253       .  A
O249       Al251   1.919       .  S
O250        C263   1.280       .  A
O250       Al260   1.978       .  S
Al251       O264   1.880       .  S
Al251       O261   1.884       .  S
Al251       O256   1.779       .  S
O252        C259   1.254       .  A
O252       Al260   1.885       .  S
O253        C262   1.257       .  A
O253       Al260   1.880       .  S
O254       Al260   1.935       .  S
O255        C262   1.270       .  A
O256       Al260   1.768       .  S
O257        C258   1.263       .  A
C258        C562   1.476       .  S
C259        C450   1.492       .  S
C262        C693   1.492       .  S
C263        O264   1.265       .  A
C263        C485   1.492       .  S
O265        C280   1.257       .  A
O265       Al273   1.861       .  S
C266        O276   1.262       .  A
C266        O267   1.273       .  A
C266        C514   1.482       .  S
O267       Al269   1.951       .  S
O268        C270   1.254       .  A
O268       Al269   1.899       .  S
Al269       O277   1.890       .  S
Al269       O279   1.967       .  S
Al269       O278   1.781       .  S
C270        O283   1.255       .  A
C270        C434   1.476       .  S
O271        C281   1.258   1_655  A
O271       Al273   1.884       .  S
O272        C285   1.272       .  A
O272       Al282   1.953       .  S
Al273       O286   1.905       .  S
Al273       O283   1.910       .  S
Al273       O278   1.776       .  S
O274        C281   1.271       .  A
O274       Al282   1.954   1_455  S
O275        C284   1.265       .  A
O275       Al282   1.953       .  S
O276       Al282   1.871       .  S
O277        C284   1.256       .  A
O278       Al282   1.792       .  S
O279        C280   1.275       .  A
C280        C418   1.489       .  S
C281        C453   1.475       .  S
C284        C949   1.494       .  S
C285        O286   1.265       .  A
C285        C501   1.511   1_655  S
O287        C302   1.263       .  A
O287       Al295   1.886       .  S
C288        O298   1.249       .  A
C288        O289   1.270       .  A
C288        C386   1.478       .  S
O289      Al1411   1.944       .  S
O290        C292   1.254   1_556  A
O290       Al291   1.892   1_556  S
Al291       O299   1.861       .  S
Al291       O301   1.965       .  S
Al291      O1409   1.952   1_554  S
Al291       O300   1.775       .  S
C292        O305   1.259       .  A
C292        C466   1.476   1_554  S
O293        C303   1.262       .  A
O293       Al295   1.888       .  S
O294        C307   1.263       .  A
O294       Al304   1.915       .  S
Al295       O308   1.909       .  S
Al295       O305   1.915       .  S
Al295       O300   1.780       .  S
O296        C303   1.275       .  A
O296       Al304   1.956       .  S
O297        C306   1.270       .  A
O297       Al304   1.973       .  S
O298      Al1424   1.844       .  S
O299        C306   1.254       .  A
O300       Al304   1.780       .  S
O301        C302   1.275       .  A
C302        C421   1.480       .  S
C303        C370   1.475   1_565  S
Al304      O1418   1.849   1_554  S
C306       C1029   1.491       .  S
C307        O308   1.258       .  A
C307        C402   1.484       .  S
O309        C324   1.258       .  A
O309       Al317   1.889       .  S
C310        O320   1.275       .  A
C310        O311   1.254       .  A
C310        C626   1.496       .  S
O311      Al1433   1.868   1_554  S
O312       C1434   1.272       .  A
O312      Al1433   1.939   1_455  S
Al313       O321   1.955       .  S
Al313       O323   1.930       .  S
Al313      O1431   1.870       .  S
Al313      O1432   1.954   1_655  S
Al313       O322   1.793       .  S
C314        O327   1.264   1_455  A
C314       O1432   1.273       .  A
C314        C546   1.482       .  S
O315       C1445   1.257       .  A
O315       Al317   1.915       .  S
O316        C329   1.280       .  A
O316      Al1446   1.986       .  S
Al317       O330   1.891       .  S
Al317       O327   1.887       .  S
Al317       O322   1.778       .  S
O318        C325   1.258   1_554  A
O318       Al326   1.898   1_554  S
O319       C1448   1.257       .  A
O319       Al326   1.882       .  S
O320       Al326   1.975   1_554  S
O321        C328   1.269       .  A
O322      Al1446   1.776       .  S
O323        C324   1.266       .  A
C324        C610   1.480   1_655  S
C325       O1435   1.260       .  A
C325        C373   1.484   1_556  S
Al326      O1436   1.986       .  S
Al326      O1442   1.774       .  S
C328       O1439   1.258       .  A
C328       C1954   1.491       .  S
C329        O330   1.264       .  A
C329        C354   1.498       .  S
O331        C346   1.257   1_545  A
O331       Al339   1.898       .  S
C332        O342   1.272       .  A
C332        O333   1.247       .  A
C332        C405   1.473       .  S
O333       Al335   1.835       .  S
O334        C336   1.274       .  A
O334       Al335   1.956   1_565  S
Al335       O343   1.963       .  S
Al335       O345   1.911       .  S
Al335       O344   1.789       .  S
C336        O349   1.269       .  A
C336        C437   1.502       .  S
O337        C347   1.255       .  A
O337       Al339   1.921       .  S
O338        C351   1.281       .  A
O338       Al348   1.981       .  S
Al339       O352   1.889       .  S
Al339       O349   1.902   1_545  S
Al339       O344   1.783       .  S
O340        C347   1.247       .  A
O340       Al348   1.884       .  S
O341        C350   1.253       .  A
O341       Al348   1.878       .  S
O342       Al348   1.940       .  S
O343        C350   1.268       .  A
O344       Al348   1.768       .  S
O345        C346   1.264   1_545  A
C346        C389   1.467       .  S
C347        C597   1.485       .  S
C350        C869   1.499       .  S
C351        O352   1.266       .  A
C351        C357   1.498       .  S
C353        C354   1.405       .  A
C353        C358   1.413       .  A
C353        H360   1.084       .  S
C354        C355   1.421       .  A
C355        C356   1.413       .  A
C355        C362   1.512       .  S
C356        C357   1.404       .  A
C356        H361   1.083       .  S
C357        C358   1.422       .  A
C358        C359   1.515       .  S
C359        F363   1.385       .  S
C359        F364   1.381       .  S
C359        F365   1.385       .  S
C362        F366   1.381       .  S
C362        F367   1.384       .  S
C362        F368   1.385       .  S
C369        C370   1.399       .  A
C369        C374   1.405       .  A
C369        H376   1.072       .  S
C370       C1491   1.409   1_554  A
C371        C372   1.408       .  A
C371       C1490   1.412       .  A
C371        C378   1.514       .  S
C372       C1493   1.410       .  A
C372        H377   1.085       .  S
C373        C374   1.420       .  A
C373       C1492   1.410   1_554  A
C374        C375   1.522       .  S
C375        F379   1.384       .  S
C375        F380   1.383       .  S
C375        F381   1.378       .  S
C378        F382   1.378       .  S
C378        F383   1.384   1_545  S
C378        F384   1.384       .  S
C385        C386   1.398       .  A
C385        C390   1.402       .  A
C385        H392   1.083       .  S
C386        C387   1.430       .  A
C387        C388   1.400       .  A
C387        C394   1.520   1_565  S
C388        C389   1.391       .  A
C388        H393   1.085   1_565  S
C389        C390   1.420       .  A
C390        C391   1.516       .  S
C391        F395   1.385       .  S
C391        F396   1.381       .  S
C391        F397   1.381       .  S
C394        F398   1.382       .  S
C394        F399   1.374   1_545  S
C394        F400   1.385       .  S
C401        C402   1.399       .  A
C401        C406   1.408       .  A
C401        H408   1.083       .  S
C402        C403   1.424   1_565  A
C403        C404   1.399       .  A
C403        C410   1.508       .  S
C404        C405   1.391       .  A
C404        H409   1.084       .  S
C405        C406   1.426   1_545  A
C406        C407   1.523       .  S
C407        F411   1.385       .  S
C407        F412   1.381   1_565  S
C407        F413   1.380       .  S
C410        F414   1.381       .  S
C410        F415   1.383       .  S
C410        F416   1.385       .  S
C417        C418   1.405       .  A
C417        C422   1.411       .  A
C417        H424   1.084       .  S
C418        C419   1.425       .  A
C419        C420   1.406       .  A
C419        C426   1.519       .  S
C420        C421   1.399       .  A
C420        H425   1.084       .  S
C421        C422   1.416       .  A
C422        C423   1.513       .  S
C423        F427   1.385       .  S
C423        F428   1.384       .  S
C423        F429   1.382       .  S
C426        F430   1.385       .  S
C426        F431   1.383       .  S
C426        F432   1.383       .  S
C433        C434   1.397       .  A
C433        C438   1.407       .  A
C433        H440   1.084       .  S
C434        C435   1.412       .  A
C435        C436   1.411       .  A
C435        C442   1.517       .  S
C436        C437   1.412       .  A
C436        H441   1.082       .  S
C437        C438   1.427       .  A
C438        C439   1.517       .  S
C439        F443   1.385       .  S
C439        F444   1.379       .  S
C439        F445   1.381       .  S
C442        F446   1.382       .  S
C442        F447   1.380       .  S
C442        F448   1.385       .  S
C449        C450   1.407       .  A
C449        C454   1.399       .  A
C449        H456   1.082       .  S
C450        C451   1.427       .  A
C451        C452   1.411       .  A
C451        C458   1.520       .  S
C452        C453   1.400       .  A
C452        H457   1.083       .  S
C453        C454   1.411       .  A
C454        C455   1.511       .  S
C455        F459   1.385       .  S
C455        F460   1.380       .  S
C455        F461   1.382       .  S
C458        F462   1.383       .  S
C458        F463   1.383       .  S
C458        F464   1.385       .  S
C465        C470   1.411       .  A
C465       C1586   1.402       .  A
C465        H472   1.083       .  S
C466        C467   1.417       .  A
C466       C1585   1.400   1_556  A
C467        C468   1.404       .  A
C467        C474   1.520       .  S
C468       C1589   1.406       .  A
C468        H473   1.083       .  S
C469        C470   1.427       .  A
C469       C1588   1.407       .  A
C470        C471   1.522   1_655  S
C471        F475   1.385   1_455  S
C471        F476   1.383       .  S
C471        F477   1.382       .  S
C474        F478   1.382       .  S
C474        F479   1.381   1_556  S
C474        F480   1.385       .  S
C481        C482   1.403       .  A
C481        C486   1.406       .  A
C481        H488   1.083       .  S
C482        C483   1.424       .  A
C483        C484   1.413       .  A
C483        C490   1.515       .  S
C484        C485   1.403       .  A
C484        H489   1.083       .  S
C485        C486   1.418       .  A
C486        C487   1.511       .  S
C487        F491   1.384       .  S
C487        F492   1.383       .  S
C487        F493   1.383       .  S
C490        F494   1.381       .  S
C490        F495   1.383       .  S
C490        F496   1.385       .  S
C497        C498   1.412       .  A
C497        C502   1.424       .  A
C497        H504   1.083       .  S
C498        C499   1.404       .  A
C499        C500   1.399       .  A
C499        C506   1.515       .  S
C500        C501   1.411       .  A
C500        H505   1.074       .  S
C501        C502   1.423       .  A
C502        C503   1.516       .  S
C503        F507   1.385       .  S
C503        F508   1.382   1_455  S
C503        F509   1.383       .  S
C506        F510   1.379       .  S
C506        F511   1.380       .  S
C506        F512   1.384       .  S
C513        C514   1.410       .  A
C513        C518   1.407   1_655  A
C513        H520   1.083   1_655  S
C514        C515   1.414       .  A
C515        C516   1.405       .  A
C515        C522   1.516       .  S
C516        C517   1.406       .  A
C516        H521   1.084       .  S
C517        C518   1.409   1_655  A
C518        C519   1.516       .  S
C519        F523   1.383       .  S
C519        F524   1.380       .  S
C519        F525   1.384       .  S
C522        F526   1.383       .  S
C522        F527   1.378       .  S
C522        F528   1.385       .  S
C529        C530   1.406       .  A
C529        C534   1.412       .  A
C529       H1656   1.083       .  S
C530        C531   1.422   1_556  A
C531        C532   1.407       .  A
C531        C538   1.521       .  S
C532        C533   1.405       .  A
C532        H537   1.081       .  S
C533        C534   1.423   1_554  A
C534       C1655   1.521       .  S
C535       C1654   1.521       .  S
C535        F539   1.385       .  S
C535        F540   1.384       .  S
C535       F1661   1.383       .  S
H536       C1649   1.083       .  S
C538        F542   1.382   1_554  S
C538        F543   1.380       .  S
C538        F544   1.385       .  S
F541       C1655   1.382   1_554  S
C545        C546   1.400       .  A
C545        C550   1.412       .  A
C545        H552   1.082       .  S
C546       C1667   1.413       .  A
C547        C548   1.401   1_556  A
C547       C1666   1.417       .  A
C547        C554   1.518   1_556  S
C548        C549   1.404   1_554  A
C548        H553   1.082       .  S
C549       C1670   1.425       .  A
C550       C1669   1.429       .  A
C550        C551   1.517       .  S
C551        F555   1.385       .  S
C551        F556   1.377       .  S
C551        F557   1.382       .  S
C554        F558   1.385       .  S
C554        F559   1.380   1_455  S
C554        F560   1.383   1_454  S
C561        C562   1.404   1_545  A
C561        C566   1.401       .  A
C561        H568   1.084       .  S
C562        C563   1.409       .  A
C563        C564   1.411       .  A
C563        C570   1.514       .  S
C564        C565   1.413   1_565  A
C564        H569   1.082       .  S
C565        C566   1.413       .  A
C566        C567   1.512       .  S
C567        F571   1.382       .  S
C567        F572   1.383       .  S
C567        F573   1.385       .  S
C570        F574   1.383       .  S
C570        F575   1.378       .  S
C570        F576   1.385       .  S
C577        C578   1.395       .  A
C577        C582   1.404       .  A
C577        H584   1.084       .  S
C578        C579   1.423       .  A
C579        C580   1.408       .  A
C579        C586   1.520       .  S
C580        C581   1.400       .  A
C580        H585   1.083   1_565  S
C581        C582   1.428       .  A
C582        C583   1.519       .  S
C583        F587   1.385       .  S
C583        F588   1.378       .  S
C583        F589   1.382       .  S
C586        F590   1.383       .  S
C586        F591   1.382   1_565  S
C586        F592   1.385   1_565  S
C593        C594   1.403       .  A
C593        C598   1.404       .  A
C593        H600   1.077       .  S
C594        C595   1.426       .  A
C595        C596   1.411       .  A
C595        C602   1.521   1_655  S
C596        C597   1.403       .  A
C596        H601   1.083       .  S
C597        C598   1.421       .  A
C598        C599   1.522       .  S
C599        F603   1.385       .  S
C599        F604   1.381       .  S
C599        F605   1.383       .  S
C602        F606   1.384       .  S
C602        F607   1.383       .  S
C602        F608   1.385   1_455  S
C609        C610   1.407       .  A
C609        C614   1.406       .  A
C609        H616   1.083       .  S
C610        C611   1.408       .  A
C611        C612   1.411       .  A
C611        C618   1.516   1_455  S
C612        C613   1.415       .  A
C612        H617   1.083       .  S
C613        C614   1.412       .  A
C614        C615   1.512       .  S
C615        F619   1.385       .  S
C615        F620   1.383       .  S
C615        F621   1.383       .  S
C618        F622   1.383       .  S
C618        F623   1.380       .  S
C618        F624   1.385       .  S
C625        C626   1.399       .  A
C625        C630   1.411       .  A
C625        H632   1.083       .  S
C626        C627   1.429   1_655  A
C627        C628   1.413       .  A
C627        C634   1.519       .  S
C628        C629   1.398       .  A
C628        H633   1.083       .  S
C629        C630   1.424   1_455  A
C630        C631   1.513       .  S
C631        F635   1.385       .  S
C631        F636   1.381       .  S
C631        F637   1.381       .  S
C634        F638   1.383   1_455  S
C634        F639   1.382       .  S
C634        F640   1.385       .  S
C641        C642   1.408       .  A
C641        C646   1.417       .  A
C641        H648   1.083       .  S
C642        C643   1.418       .  A
C643        C644   1.412       .  A
C643        C650   1.514       .  S
C644        C645   1.409       .  A
C644        H649   1.083       .  S
C645        C646   1.419       .  A
C646        C647   1.513       .  S
C647        F651   1.380       .  S
C647        F652   1.384       .  S
C647        F653   1.385       .  S
C650        F654   1.380       .  S
C650        F655   1.381       .  S
C650        F656   1.385       .  S
C657        C658   1.407       .  A
C657        C662   1.409       .  A
C657        H664   1.083       .  S
C658        C659   1.428       .  A
C659        C660   1.409       .  A
C659        C666   1.520       .  S
C660        C661   1.399       .  A
C660        H665   1.083       .  S
C661        C662   1.419       .  A
C662        C663   1.521   1_545  S
C663        F667   1.384       .  S
C663        F668   1.381       .  S
C663        F669   1.384       .  S
C666        F670   1.378       .  S
C666        F671   1.381       .  S
C666        F672   1.385       .  S
C673        C674   1.411       .  A
C673        C678   1.415   1_554  A
C673        H680   1.084   1_554  S
C674        C675   1.417       .  A
C675        C676   1.409       .  A
C675        C682   1.516       .  S
C676        C677   1.406       .  A
C676       H1801   1.084       .  S
C677       C1360   1.487   1_554  S
C677        C678   1.411   1_554  A
C678        C679   1.514       .  S
C679        F683   1.385       .  S
C679        F684   1.383       .  S
C679       F1805   1.383       .  S
H681       C1796   1.083       .  S
C682        F686   1.383       .  S
C682       F1807   1.382       .  S
C682       F1808   1.384       .  S
F685       C1799   1.384       .  S
F687       C1802   1.383       .  S
F688       C1802   1.385       .  S
C689        C690   1.398       .  A
C689        C694   1.404       .  A
C689        H696   1.084       .  S
C690        C691   1.423       .  A
C691        C692   1.416       .  A
C691        C698   1.508       .  S
C692        C693   1.401       .  A
C692        H697   1.083       .  S
C693        C694   1.427       .  A
C694        C695   1.519       .  S
C695        F699   1.385       .  S
C695        F700   1.378       .  S
C695        F701   1.380       .  S
C698        F702   1.382       .  S
C698        F703   1.376       .  S
C698        F704   1.385       .  S
C705        C706   1.406       .  A
C705        C710   1.413       .  A
C705        H712   1.084       .  S
C706        C707   1.421       .  A
C707        C708   1.409       .  A
C707        C714   1.517       .  S
C708        C709   1.402       .  A
C708        H713   1.085       .  S
C709        C710   1.420       .  A
C710        C711   1.516       .  S
C711        F715   1.384       .  S
C711        F716   1.382       .  S
C711        F717   1.384       .  S
C714        F718   1.383       .  S
C714        F719   1.383       .  S
C714        F720   1.384       .  S
C721        C722   1.404       .  A
C721        C726   1.427       .  A
C721        H728   1.083       .  S
C722        C723   1.434       .  A
C723        C724   1.408       .  A
C723        C730   1.510       .  S
C724        C725   1.394       .  A
C724        H729   1.083       .  S
C725        C726   1.429       .  A
C726        C727   1.506       .  S
C727        F731   1.384       .  S
C727        F732   1.374       .  S
C727        F733   1.382       .  S
C730        F734   1.377       .  S
C730        F735   1.373       .  S
C730        F736   1.385       .  S
C737        C738   1.401       .  A
C737        C742   1.409       .  A
C737        H744   1.083       .  S
C738        C739   1.408       .  A
C739        C740   1.398       .  A
C739        C746   1.521       .  S
C740        C741   1.413       .  A
C740        H745   1.082       .  S
C741        C742   1.426       .  A
C742        C743   1.520       .  S
C743        F747   1.385       .  S
C743        F748   1.382       .  S
C743        F749   1.381       .  S
C746        F750   1.384       .  S
C746        F751   1.382       .  S
C746        F752   1.384       .  S
C753        C754   1.397       .  A
C753        C758   1.399       .  A
C753        H760   1.082       .  S
C754        C755   1.428       .  A
C755        C756   1.407       .  A
C755        C762   1.520       .  S
C756        C757   1.396       .  A
C756        H761   1.084       .  S
C757        C758   1.419       .  A
C758        C759   1.516       .  S
C759        F763   1.385       .  S
C759        F764   1.381       .  S
C759        F765   1.380       .  S
C762        F766   1.380       .  S
C762        F767   1.383       .  S
C762        F768   1.385       .  S
C769        C770   1.414       .  A
C769        C774   1.407       .  A
C769        H776   1.083       .  S
C770        C771   1.410       .  A
C771        C772   1.414       .  A
C771        C778   1.513       .  S
C772        C773   1.412       .  A
C772        H777   1.083       .  S
C773        C774   1.410       .  A
C774        C775   1.518       .  S
C775        F779   1.385       .  S
C775        F780   1.382       .  S
C775        F781   1.382       .  S
C778        F782   1.381       .  S
C778        F783   1.383       .  S
C778        F784   1.384       .  S
C785        C786   1.396       .  A
C785        C790   1.409       .  A
C785        H792   1.084       .  S
C786       C1907   1.423   1_554  A
C787        C788   1.414       .  A
C787       C1906   1.423       .  A
C787        C794   1.512       .  S
C788       C1909   1.399       .  A
C788        H793   1.083       .  S
C789       C1228   1.491       .  S
C789        C790   1.425       .  A
C789       C1908   1.399   1_554  A
C790        C791   1.512       .  S
C791        F795   1.385       .  S
C791        F796   1.379       .  S
C791        F797   1.378       .  S
C794        F798   1.379       .  S
C794        F799   1.382       .  S
C794        F800   1.385       .  S
C801        C802   1.400       .  A
C801        C806   1.407       .  A
C801        H808   1.083       .  S
C802        C803   1.419       .  A
C803        C804   1.412       .  A
C803        C810   1.515       .  S
C804        C805   1.406       .  A
C804        H809   1.084       .  S
C805        C806   1.424       .  A
C806        C807   1.515       .  S
C807        F811   1.384       .  S
C807        F812   1.383       .  S
C807        F813   1.384       .  S
C810        F814   1.384       .  S
C810        F815   1.380       .  S
C810        F816   1.384       .  S
C817        C818   1.403       .  A
C817        C822   1.411       .  A
C817        H824   1.083   1_554  S
C818        C819   1.423       .  A
C819        C820   1.403       .  A
C819       C1946   1.522       .  S
C820        C821   1.401       .  A
C820        H825   1.077       .  S
C821        C822   1.423       .  A
C822        C823   1.516       .  S
C823        F827   1.385   1_554  S
C823        F828   1.380       .  S
C823        F829   1.383   1_554  S
C826       C1939   1.522       .  S
C826        F831   1.381       .  S
C826        F832   1.385       .  S
C826       F1950   1.382       .  S
F830       C1946   1.383       .  S
C833        C834   1.407       .  A
C833        C838   1.411       .  A
C833        H840   1.083       .  S
C834       C1448   1.480   1_554  S
C834        C835   1.409   1_554  A
C835        C836   1.411   1_556  A
C835       C1962   1.515       .  S
C836        C837   1.410       .  A
C836        H841   1.080   1_554  S
C837        C838   1.413       .  A
C838        C839   1.516       .  S
C839        F843   1.385       .  S
C839        F844   1.383       .  S
C839        F845   1.383       .  S
C842       C1955   1.514       .  S
C842        F847   1.383       .  S
C842        F848   1.385       .  S
C842       F1966   1.383       .  S
F846       C1962   1.383       .  S
C849        C850   1.401       .  A
C849       C1974   1.405       .  A
C849        H856   1.079       .  S
C850       C1971   1.423       .  A
C851        C852   1.411       .  A
C851       C1970   1.422   1_554  A
C851        C858   1.521       .  S
C852        C853   1.407       .  A
C852        H857   1.083       .  S
C853        C854   1.415   1_554  A
C854       C1969   1.403       .  A
C854        C855   1.521       .  S
C855        F859   1.384       .  S
C855        F860   1.378   1_556  S
C855       F1981   1.383       .  S
C858        F862   1.384       .  S
C858       F1983   1.383   1_554  S
C858       F1984   1.385       .  S
F861       C1975   1.383       .  S
F863       C1978   1.382       .  S
F864       C1978   1.384       .  S
C865        C866   1.394       .  A
C865        C870   1.402       .  A
C865        H872   1.084       .  S
C866        C867   1.421       .  A
C867        C868   1.419       .  A
C867        C874   1.507       .  S
C868        C869   1.403       .  A
C868        H873   1.083       .  S
C869        C870   1.430       .  A
C870        C871   1.516       .  S
C871        F875   1.385       .  S
C871        F876   1.374       .  S
C871        F877   1.378       .  S
C874        F878   1.383       .  S
C874        F879   1.378       .  S
C874        F880   1.384       .  S
C881        C882   1.406       .  A
C881        C886   1.406       .  A
C881        H888   1.084       .  S
C882        C883   1.420       .  A
C883        C884   1.407       .  A
C883        C890   1.520       .  S
C884        C885   1.401       .  A
C884        H889   1.079       .  S
C885        C886   1.411       .  A
C886        C887   1.514       .  S
C887        F891   1.384       .  S
C887        F892   1.384       .  S
C887        F893   1.380       .  S
C890        F894   1.384       .  S
C890        F895   1.381       .  S
C890        F896   1.385       .  S
C897        C898   1.396       .  A
C897        C902   1.401       .  A
C897        H904   1.083       .  S
C898        C899   1.430       .  A
C899        C900   1.403       .  A
C899        C906   1.519       .  S
C900        C901   1.393       .  A
C900        H905   1.085       .  S
C901        C902   1.415       .  A
C902        C903   1.506       .  S
C903        F907   1.385       .  S
C903        F908   1.383       .  S
C903        F909   1.381       .  S
C906        F910   1.375       .  S
C906        F911   1.383       .  S
C906        F912   1.384       .  S
C913        C914   1.394       .  A
C913        C918   1.403       .  A
C913        H920   1.084       .  S
C914        C915   1.418       .  A
C915        C916   1.404       .  A
C915        C922   1.512       .  S
C916        C917   1.398       .  A
C916        H921   1.084       .  S
C917        C918   1.430       .  A
C918        C919   1.523       .  S
C919        F923   1.385       .  S
C919        F924   1.383       .  S
C919        F925   1.381       .  S
C922        F926   1.380       .  S
C922        F927   1.382       .  S
C922        F928   1.385       .  S
C929        C930   1.405       .  A
C929        C934   1.408       .  A
C929        H936   1.084       .  S
C930        C931   1.419       .  A
C931        C932   1.410       .  A
C931        C938   1.507       .  S
C932        C933   1.402       .  A
C932        H937   1.084       .  S
C933        C934   1.418       .  A
C934        C935   1.511       .  S
C935        F939   1.385       .  S
C935        F940   1.380       .  S
C935        F941   1.379       .  S
C938        F942   1.383       .  S
C938        F943   1.377       .  S
C938        F944   1.385       .  S
C945        C946   1.410       .  A
C945        C950   1.417       .  A
C945        H952   1.083       .  S
C946        C947   1.414       .  A
C947        C948   1.415       .  A
C947        C954   1.517       .  S
C948        C949   1.410       .  A
C948        H953   1.083       .  S
C949        C950   1.412       .  A
C950        C951   1.514       .  S
C951        F955   1.382       .  S
C951        F956   1.384       .  S
C951        F957   1.383       .  S
C954        F958   1.384       .  S
C954        F959   1.383       .  S
C954        F960   1.384       .  S
C961        C962   1.414       .  A
C961        C966   1.402       .  A
C961        H968   1.081       .  S
C962        C963   1.427       .  A
C963        C964   1.407       .  A
C963        C970   1.522       .  S
C964        C965   1.398       .  A
C964        H969   1.083       .  S
C965        C966   1.408       .  A
C966        C967   1.519       .  S
C967        F971   1.384       .  S
C967        F972   1.383       .  S
C967        F973   1.382       .  S
C970        F974   1.369       .  S
C970        F975   1.382       .  S
C970        F976   1.385       .  S
C977        C978   1.399       .  A
C977        C982   1.408       .  A
C977        H984   1.083       .  S
C978        C979   1.412       .  A
C979        C980   1.413       .  A
C979        C986   1.517       .  S
C980        C981   1.413       .  A
C980        H985   1.082       .  S
C981        C982   1.430       .  A
C982        C983   1.521       .  S
C983        F987   1.385       .  S
C983        F988   1.381       .  S
C983        F989   1.382       .  S
C986        F990   1.382       .  S
C986        F991   1.382       .  S
C986        F992   1.384       .  S
C993        C994   1.410       .  A
C993        C998   1.394       .  A
C993       H1000   1.082       .  S
C994        C995   1.423       .  A
C995        C996   1.416       .  A
C995       C1002   1.517       .  S
C996        C997   1.404       .  A
C996       H1001   1.082       .  S
C997        C998   1.407       .  A
C998        C999   1.518       .  S
C999       F1003   1.385       .  S
C999       F1004   1.382       .  S
C999       F1005   1.377       .  S
C1002      F1006   1.384       .  S
C1002      F1007   1.382       .  S
C1002      F1008   1.384       .  S
C1009      C1010   1.396       .  A
C1009      C1014   1.402       .  A
C1009      H1016   1.083       .  S
C1010      C1011   1.433       .  A
C1011      C1012   1.408       .  A
C1011      C1018   1.521       .  S
C1012      C1013   1.394       .  A
C1012      H1017   1.083       .  S
C1013      C1014   1.417       .  A
C1014      C1015   1.503       .  S
C1015      F1019   1.385       .  S
C1015      F1020   1.382       .  S
C1015      F1021   1.379       .  S
C1018      F1022   1.384       .  S
C1018      F1023   1.383       .  S
C1018      F1024   1.385       .  S
C1025      C2146   1.396       .  A
C1025      C2150   1.413       .  A
C1025      H1032   1.083       .  S
C1026      C1140   1.494       .  S
C1026      C1027   1.426       .  A
C1026      C2145   1.402   1_554  A
C1027      C1028   1.405       .  A
C1027      C1034   1.516       .  S
C1028      C1029   1.397       .  A
C1028      H1033   1.083       .  S
C1029      C1030   1.422       .  A
C1030      C2145   1.417   1_554  A
C1030      C2151   1.507   1_554  S
C1031      C2150   1.506       .  S
C1031      F1035   1.375       .  S
C1031      F1036   1.381       .  S
C1031      F2157   1.385       .  S
C1034      F1038   1.379       .  S
C1034      F1039   1.376       .  S
C1034      F1040   1.385       .  S
F1037      C2151   1.384       .  S
C1041      C1042   1.406       .  A
C1041      C1046   1.401       .  A
C1041      H1048   1.078       .  S
C1042      C2163   1.423       .  A
C1043      C1044   1.410       .  A
C1043      C2162   1.422       .  A
C1043      C1050   1.522       .  S
C1044      C1045   1.405       .  A
C1044      H1049   1.079       .  S
C1045      C2166   1.416       .  A
C1046      C2165   1.415       .  A
C1046      C1047   1.521       .  S
C1047      F1051   1.385       .  S
C1047      F1052   1.381       .  S
C1047      F1053   1.382       .  S
C1050      F1054   1.384       .  S
C1050      F1055   1.383   1_554  S
C1050      F1056   1.385       .  S
C1057      C1058   1.396       .  A
C1057      C1062   1.402       .  A
C1057      H1064   1.084       .  S
C1058      C1059   1.423       .  A
C1059      C1060   1.399       .  A
C1059      C1066   1.522       .  S
C1060      C1061   1.397       .  A
C1060      H1065   1.084       .  S
C1061      C1062   1.425       .  A
C1062      C1063   1.522       .  S
C1063      F1067   1.385       .  S
C1063      F1068   1.383       .  S
C1063      F1069   1.380       .  S
C1066      F1070   1.383       .  S
C1066      F1071   1.381       .  S
C1066      F1072   1.385       .  S
C1073      C1074   1.392       .  A
C1073      C1078   1.403       .  A
C1073      H1080   1.085       .  S
C1074      C1075   1.419       .  A
C1075      C1076   1.402       .  A
C1075      C1082   1.512       .  S
C1076      C1077   1.398       .  A
C1076      H1081   1.083       .  S
C1077      C1078   1.430       .  A
C1078      C1079   1.519       .  S
C1079      F1083   1.384       .  S
C1079      F1084   1.376       .  S
C1079      F1085   1.382       .  S
C1082      F1086   1.382       .  S
C1082      F1087   1.380       .  S
C1082      F1088   1.385       .  S
C1089      C1090   1.406       .  A
C1089      C1094   1.412       .  A
C1089      H1096   1.084       .  S
C1090      C1091   1.420       .  A
C1091      C1092   1.407       .  A
C1091      C1098   1.517       .  S
C1092      C1093   1.404       .  A
C1092      H1097   1.085       .  S
C1093      C1094   1.423       .  A
C1094      C1095   1.519       .  S
C1095      F1099   1.385       .  S
C1095      F1100   1.383       .  S
C1095      F1101   1.383       .  S
C1098      F1102   1.383       .  S
C1098      F1103   1.383       .  S
C1098      F1104   1.384       .  S
C1105      C1106   1.413       .  A
C1105      C1110   1.407       .  A
C1105      H1112   1.082       .  S
C1106      C2227   1.428   1_554  A
C1107      C1108   1.412       .  A
C1107      C2226   1.427       .  A
C1107      C1114   1.520       .  S
C1108      C2229   1.401       .  A
C1108      H1113   1.083       .  S
C1109      C1110   1.410       .  A
C1109      C2228   1.398       .  A
C1110      C1111   1.519       .  S
C1111      F1115   1.385       .  S
C1111      F1116   1.383       .  S
C1111      F1117   1.383       .  S
C1114      F1118   1.382       .  S
C1114      F1119   1.383       .  S
C1114      F1120   1.385       .  S
O1121      C1136   1.266       .  A
O1121     Al1129   1.878       .  S
C1122      O1132   1.249       .  A
C1122      O1123   1.267       .  A
C1122      C2178   1.477       .  S
O1123     Al1125   1.933       .  S
O1124      C1126   1.252       .  A
O1124     Al1125   1.876       .  S
C1126      C2226   1.495       .  S
O1127      C1137   1.265       .  A
O1127     Al1129   1.898       .  S
O1128      C1141   1.263       .  A
O1128     Al1138   1.913       .  S
Al1129     O1142   1.915       .  S
Al1129     O1139   1.922       .  S
Al1129     O1134   1.781       .  S
O1130      C1137   1.273       .  A
O1130     Al1138   1.944       .  S
O1131      C1140   1.265       .  A
O1131     Al1138   1.952   1_554  S
O1133      C1140   1.255       .  A
O1134     Al1138   1.787       .  S
O1135      C1136   1.276       .  A
C1136      C2210   1.484       .  S
C1137      C2162   1.498   1_556  S
C1141      O1142   1.261       .  A
C1141      C2194   1.475       .  S
O1143      C1158   1.264       .  A
O1143     Al1151   1.891       .  S
C1144      O1154   1.258       .  A
C1144      O1145   1.269       .  A
C1144      C2117   1.491       .  S
O1145     Al1147   1.944       .  S
O1146      C1148   1.255       .  A
O1146     Al1147   1.897       .  S
Al1147     O1155   1.885       .  S
Al1147     O1157   1.952       .  S
Al1147     O1156   1.780       .  S
C1148      O1161   1.254       .  A
C1148      C2098   1.465       .  S
O1149      C1159   1.267       .  A
O1149     Al1151   1.899       .  S
O1150      C1163   1.271       .  A
O1150     Al1160   1.939       .  S
Al1151     O1164   1.884       .  S
Al1151     O1161   1.899       .  S
Al1151     O1156   1.774       .  S
O1152      C1159   1.268       .  A
O1152     Al1160   1.939       .  S
O1153      C1162   1.268       .  A
O1153     Al1160   1.955       .  S
O1154     Al1160   1.869       .  S
O1155      C1162   1.255       .  A
O1156     Al1160   1.788       .  S
O1157      C1158   1.271       .  A
C1158      C2213   1.482       .  S
C1159      C2082   1.503       .  S
C1162      C2066   1.487       .  S
C1163      O1164   1.254       .  A
C1163      C2133   1.489       .  S
O1165      C1180   1.260       .  A
O1165     Al1173   1.916       .  S
C1166      O1176   1.275       .  A
C1166      O1167   1.248       .  A
C1166      C2018   1.475       .  S
O1167     Al1169   1.839       .  S
O1168      C1170   1.275       .  A
O1168     Al1169   1.956       .  S
Al1169     O1177   1.979       .  S
Al1169     O1179   1.898       .  S
Al1169     O1178   1.783       .  S
C1170      O1183   1.259       .  A
C1170      C2005   1.470       .  S
O1171      C1181   1.259       .  A
O1171     Al1173   1.916       .  S
O1172      C1185   1.277       .  A
O1172     Al1182   1.974       .  S
Al1173     O1186   1.878       .  S
Al1173     O1183   1.870       .  S
Al1173     O1178   1.778       .  S
O1174      C1181   1.258       .  A
O1174     Al1182   1.905       .  S
O1175      C1184   1.255       .  A
O1175     Al1182   1.864       .  S
O1176     Al1182   1.954       .  S
O1177      C1184   1.270       .  A
O1178     Al1182   1.772       .  S
O1179      C1180   1.261       .  A
C1180      C2034   1.467       .  S
C1181      C2085   1.480       .  S
C1184      C1986   1.496       .  S
C1185      O1186   1.262       .  A
C1185      C2050   1.492       .  S
O1187      C1202   1.269       .  A
O1187     Al1195   1.940       .  S
C1188      O1198   1.271       .  A
C1188      O1189   1.254   1_556  A
C1188      C2130   1.468       .  S
O1190      C1192   1.273       .  A
O1190     Al1191   1.961       .  S
Al1191     O1199   1.964       .  S
Al1191     O1201   1.906       .  S
Al1191     O1200   1.780       .  S
C1192      O1205   1.259       .  A
C1192      C2229   1.476       .  S
O1193      C1203   1.265       .  A
O1193     Al1195   1.938       .  S
O1194      C1207   1.277       .  A
O1194     Al1204   1.985       .  S
Al1195     O1208   1.880       .  S
Al1195     O1205   1.880       .  S
Al1195     O1200   1.770       .  S
O1196      C1203   1.258       .  A
O1196     Al1204   1.903       .  S
O1197      C1206   1.259       .  A
O1197     Al1204   1.888       .  S
O1199      C1206   1.269       .  A
O1200     Al1204   1.768       .  S
O1201      C1202   1.262       .  A
C1202      C2114   1.480       .  S
C1203      C1973   1.498       .  S
C1206      C1957   1.491       .  S
C1207      O1208   1.263       .  A
C1207      C2053   1.498       .  S
O1209      C1224   1.262       .  A
O1209     Al1217   1.882       .  S
C1210      O1220   1.246       .  A
C1210      O1211   1.272       .  A
C1210      C2037   1.480       .  S
O1211     Al1213   1.953       .  S
O1212      C1214   1.251       .  A
O1212     Al1213   1.884       .  S
C1214      C1938   1.483       .  S
O1215      C1225   1.264       .  A
O1215     Al1217   1.896       .  S
O1216      C1229   1.262       .  A
O1216     Al1226   1.903       .  S
Al1217     O1230   1.918       .  S
Al1217     O1227   1.931       .  S
Al1217     O1222   1.780       .  S
O1218      C1225   1.275       .  A
O1218     Al1226   1.949       .  S
O1219      C1228   1.268       .  A
O1219     Al1226   1.964   1_554  S
O1221      C1228   1.254   1_556  A
O1222     Al1226   1.781       .  S
O1223      C1224   1.280       .  A
C1224      C1922   1.495       .  S
C1225      C1970   1.496       .  S
C1229      O1230   1.262       .  A
C1229      C2021   1.468       .  S
O1231      C1246   1.264       .  A
O1231     Al1239   1.874       .  S
C1232      O1242   1.249       .  A
C1232      O1233   1.270       .  A
C1232      C1874   1.491       .  S
O1233     Al1235   1.939       .  S
O1234      C1236   1.249       .  A
O1234     Al1235   1.886       .  S
Al1235     O1243   1.889       .  S
Al1235     O1245   1.999       .  S
Al1235     O1244   1.773       .  S
C1236      O1249   1.255       .  A
C1236      C2002   1.469       .  S
O1237      C1247   1.266       .  A
O1237     Al1239   1.881       .  S
O1238      C1251   1.269       .  A
O1238     Al1248   1.938       .  S
Al1239     O1252   1.879       .  S
Al1239     O1249   1.908       .  S
Al1239     O1244   1.777       .  S
O1240      C1247   1.278       .  A
O1240     Al1248   1.980       .  S
O1241      C1250   1.280       .  A
O1241     Al1248   2.007       .  S
O1242     Al1248   1.862       .  S
O1243      C1250   1.258       .  A
O1244     Al1248   1.788       .  S
O1245      C1246   1.282       .  A
C1246      C1925   1.500       .  S
C1247      C1861   1.507       .  S
C1250      C1842   1.519       .  S
C1251      O1252   1.257       .  A
C1251      C1890   1.485       .  S
O1253      C1268   1.260       .  A
O1253     Al1261   1.910       .  S
C1254      O1264   1.276       .  A
C1254      O1255   1.251       .  A
C1254      C2197   1.482       .  S
O1255     Al1257   1.851       .  S
O1256      C1258   1.268       .  A
O1256     Al1257   1.935       .  S
Al1257     O1265   1.961       .  S
Al1257     O1267   1.904       .  S
Al1257     O1266   1.786       .  S
C1258      O1271   1.265       .  A
C1258      C2101   1.488       .  S
O1259      C1269   1.258       .  A
O1259     Al1261   1.917       .  S
O1260      C1273   1.277       .  A
O1260     Al1270   1.975       .  S
Al1261     O1274   1.881       .  S
Al1261     O1271   1.892       .  S
Al1261     O1266   1.775       .  S
O1262      C1269   1.255       .  A
O1262     Al1270   1.895       .  S
O1263      C1272   1.253       .  A
O1263     Al1270   1.862       .  S
O1264     Al1270   1.960       .  S
O1265      C1272   1.265       .  A
O1266     Al1270   1.771       .  S
O1267      C1268   1.265       .  A
C1268      C2181   1.473       .  S
C1269      C1858   1.480       .  S
C1272      C1810   1.485       .  S
C1273      O1274   1.261       .  A
C1273      C1826   1.491       .  S
O1275      C1290   1.259       .  A
O1275     Al1283   1.899       .  S
C1276      O1286   1.274       .  A
C1276      O1277   1.255   1_556  A
C1276      C1893   1.481       .  S
O1278      C1280   1.271       .  A
O1278     Al1279   1.937       .  S
Al1279     O1287   1.940       .  S
Al1279     O1289   1.925       .  S
Al1279     O1288   1.785       .  S
C1280      O1293   1.261       .  A
C1280      C1941   1.491       .  S
O1281      C1291   1.256       .  A
O1281     Al1283   1.898       .  S
O1282      C1295   1.278       .  A
O1282     Al1292   1.981       .  S
Al1283     O1296   1.880       .  S
Al1283     O1293   1.895       .  S
Al1283     O1288   1.778       .  S
O1284      C1291   1.253       .  A
O1284     Al1292   1.889       .  S
O1285      C1294   1.257       .  A
O1285     Al1292   1.893       .  S
O1287      C1294   1.263       .  A
O1288     Al1292   1.776       .  S
O1289      C1290   1.268       .  A
C1290      C1877   1.474       .  S
C1291      C2165   1.475       .  S
C1294      C1794   1.488       .  S
C1295      O1296   1.261       .  A
C1295      C1829   1.494       .  S
O1297      C1312   1.265       .  A
O1297     Al1305   1.885       .  S
C1298      O1308   1.255       .  A
C1298      O1299   1.273       .  A
C1298      C1733   1.486       .  S
O1299     Al1301   1.956       .  S
O1300      C1302   1.251       .  A
O1300     Al1301   1.895       .  S
Al1301     O1309   1.889       .  S
Al1301     O1311   1.990       .  S
Al1301     O1310   1.780       .  S
C1302      O1315   1.257       .  A
C1302      C1778   1.490       .  S
O1303      C1313   1.262       .  A
O1303     Al1305   1.894       .  S
O1304      C1317   1.273       .  A
O1304     Al1314   1.948       .  S
Al1305     O1318   1.915       .  S
Al1305     O1315   1.909       .  S
Al1305     O1310   1.782       .  S
O1306      C1313   1.273       .  A
O1306     Al1314   1.941       .  S
O1307      C1316   1.269       .  A
O1307     Al1314   1.967       .  S
O1308     Al1314   1.857       .  S
O1309      C1316   1.260       .  A
O1310     Al1314   1.788       .  S
O1311      C1312   1.281       .  A
C1312      C1765   1.500       .  S
C1313      C1714   1.493   1_455  S
C1316      C1845   1.511       .  S
C1317      O1318   1.260       .  A
C1317      C1749   1.504       .  S
O1319      C1334   1.266       .  A
O1319     Al1327   1.885       .  S
C1320      O1330   1.256       .  A
C1320      O1321   1.271       .  A
C1320      C1685   1.490       .  S
O1322      C1324   1.253       .  A
O1322     Al1323   1.906       .  S
Al1323     O1331   1.877       .  S
Al1323     O1333   1.979       .  S
Al1323     O1332   1.785       .  S
C1324      O1337   1.258       .  A
C1324      C1669   1.499       .  S
O1325      C1335   1.264   1_545  A
O1325     Al1327   1.896       .  S
O1326      C1339   1.265   1_545  A
O1326     Al1336   1.928       .  S
Al1327     O1340   1.920       .  S
Al1327     O1337   1.908       .  S
Al1327     O1332   1.780       .  S
O1328      C1335   1.274       .  A
O1328     Al1336   1.947   1_565  S
O1329      C1338   1.265       .  A
O1329     Al1336   1.947       .  S
O1331      C1338   1.255       .  A
O1332     Al1336   1.791       .  S
O1333      C1334   1.279       .  A
C1334      C1762   1.497       .  S
C1335      C1653   1.498       .  S
C1338      C1906   1.487       .  S
C1339      O1340   1.259   1_565  A
C1339      C1701   1.486       .  S
O1341      C1356   1.263       .  A
O1341     Al1349   1.910       .  S
C1342      O1352   1.275       .  A
C1342      O1343   1.255       .  A
C1342      C1618   1.479       .  S
Al1345     O1353   1.956       .  S
Al1345     O1355   1.926       .  S
Al1345     O1354   1.792       .  S
C1346      O1359   1.259   1_655  A
C1346      C1589   1.489       .  S
O1347     Al1349   1.927       .  S
O1348      C1361   1.276       .  A
Al1349     O1362   1.874       .  S
Al1349     O1359   1.880       .  S
Al1349     O1354   1.780       .  S
O1350      C1357   1.259       .  A
O1350     Al1358   1.903       .  S
O1351     Al1358   1.883       .  S
O1352     Al1358   1.971       .  S
O1353      C1360   1.267       .  A
O1355      C1356   1.267       .  A
C1356      C1637   1.488   1_455  S
C1357      C1650   1.488       .  S
C1361      O1362   1.260       .  A
C1361      C1602   1.495       .  S
O1363      C1378   1.257       .  A
O1363     Al1371   1.893       .  S
C1364      O1374   1.272       .  A
C1364      O1365   1.250       .  A
C1364      C1698   1.503       .  S
O1365     Al1367   1.863       .  S
O1366      C1368   1.274       .  A
O1366     Al1367   1.938       .  S
Al1367     O1375   1.940       .  S
Al1367     O1377   1.922       .  S
Al1367     O1376   1.784       .  S
C1368      O1381   1.264       .  A
C1368      C1781   1.477   1_565  S
O1369      C1379   1.253       .  A
O1369     Al1371   1.912       .  S
O1370      C1383   1.282       .  A
O1370     Al1380   1.984       .  S
Al1371     O1384   1.880       .  S
Al1371     O1381   1.883       .  S
Al1371     O1376   1.781       .  S
O1372      C1379   1.257       .  A
O1372     Al1380   1.901       .  S
O1373      C1382   1.258       .  A
O1373     Al1380   1.886       .  S
O1374     Al1380   1.960       .  S
O1375      C1382   1.266       .  A
O1376     Al1380   1.772       .  S
O1377      C1378   1.261       .  A
C1378      C1682   1.478       .  S
C1379      C1570   1.496       .  S
C1382      C1813   1.487       .  S
C1383      O1384   1.265       .  A
C1383      C1605   1.490       .  S
O1385      C1400   1.262       .  A
O1385     Al1393   1.878       .  S
C1386      O1396   1.261       .  A
C1386      O1387   1.270       .  A
C1386      C1634   1.490       .  S
O1387     Al1389   1.948       .  S
O1388      C1390   1.255       .  A
O1388     Al1389   1.898       .  S
Al1389     O1397   1.889       .  S
Al1389     O1399   1.962       .  S
Al1389     O1398   1.782       .  S
C1390      O1403   1.254       .  A
C1390      C1554   1.469       .  S
O1391      C1401   1.260   1_655  A
O1391     Al1393   1.889       .  S
O1392      C1405   1.272       .  A
O1392     Al1402   1.956       .  S
Al1393     O1406   1.886       .  S
Al1393     O1403   1.901       .  S
Al1393     O1398   1.775       .  S
O1394      C1401   1.270       .  A
O1394     Al1402   1.948   1_455  S
O1395      C1404   1.267       .  A
O1395     Al1402   1.952       .  S
O1396     Al1402   1.882       .  S
O1397      C1404   1.256       .  A
O1398     Al1402   1.792       .  S
O1399      C1400   1.273       .  A
C1400      C1538   1.485       .  S
C1401      C1573   1.475       .  S
C1404      C2069   1.489       .  S
C1405      O1406   1.260       .  A
C1405      C1621   1.509   1_655  S
O1407      C1422   1.263       .  A
O1407     Al1415   1.888       .  S
C1408      O1418   1.250       .  A
C1408      O1409   1.271       .  A
C1408      C1506   1.487       .  S
O1410      C1412   1.256       .  A
O1410     Al1411   1.900       .  S
Al1411     O1419   1.868       .  S
Al1411     O1421   1.961       .  S
Al1411     O1420   1.777       .  S
C1412      O1425   1.259       .  A
C1412      C1586   1.482       .  S
O1413      C1423   1.263       .  A
O1413     Al1415   1.896       .  S
O1414      C1427   1.261       .  A
O1414     Al1424   1.910       .  S
Al1415     O1428   1.911       .  S
Al1415     O1425   1.917       .  S
Al1415     O1420   1.782       .  S
O1416      C1423   1.275       .  A
O1416     Al1424   1.955       .  S
O1417      C1426   1.268       .  A
O1417     Al1424   1.968       .  S
O1419      C1426   1.256       .  A
O1420     Al1424   1.782       .  S
O1421      C1422   1.274       .  A
C1422      C1541   1.484       .  S
C1423      C1490   1.482   1_565  S
C1426      C2149   1.490       .  S
C1427      O1428   1.259       .  A
C1427      C1522   1.480       .  S
O1429      C1444   1.258       .  A
O1429     Al1437   1.889       .  S
C1430      O1440   1.274       .  A
C1430      O1431   1.254       .  A
C1430      C1746   1.493       .  S
Al1433     O1441   1.953       .  S
Al1433     O1443   1.922       .  S
Al1433     O1442   1.782       .  S
C1434      O1447   1.259   1_455  A
C1434      C1666   1.474       .  S
O1435     Al1437   1.905       .  S
O1436      C1449   1.278       .  A
Al1437     O1450   1.879       .  S
Al1437     O1447   1.870       .  S
Al1437     O1442   1.770       .  S
O1438      C1445   1.256       .  A
O1438     Al1446   1.902       .  S
O1439     Al1446   1.890       .  S
O1440     Al1446   1.965       .  S
O1441      C1448   1.269       .  A
O1443      C1444   1.265       .  A
C1444      C1730   1.474   1_655  S
C1445      C1493   1.490       .  S
C1449      O1450   1.260       .  A
C1449      C1474   1.492       .  S
O1451      C1466   1.259   1_545  A
O1451     Al1459   1.911       .  S
C1452      O1462   1.270       .  A
C1452      O1453   1.250       .  A
C1452      C1525   1.472       .  S
O1453     Al1455   1.844       .  S
O1454      C1456   1.274       .  A
O1454     Al1455   1.952   1_565  S
Al1455     O1463   1.969       .  S
Al1455     O1465   1.913       .  S
Al1455     O1464   1.785       .  S
C1456      O1469   1.269       .  A
C1456      C1557   1.500       .  S
O1457      C1467   1.256       .  A
O1457     Al1459   1.924       .  S
O1458      C1471   1.280       .  A
O1458     Al1468   1.969       .  S
Al1459     O1472   1.891       .  S
Al1459     O1469   1.902   1_545  S
Al1459     O1464   1.786       .  S
O1460      C1467   1.249       .  A
O1460     Al1468   1.889       .  S
O1461      C1470   1.255       .  A
O1461     Al1468   1.883       .  S
O1462     Al1468   1.937       .  S
O1463      C1470   1.270       .  A
O1464     Al1468   1.769       .  S
O1465      C1466   1.264   1_545  A
C1466      C1509   1.471       .  S
C1467      C1717   1.488       .  S
C1470      C1989   1.504       .  S
C1471      O1472   1.267       .  A
C1471      C1477   1.496       .  S
C1473      C1474   1.404       .  A
C1473      C1478   1.413       .  A
C1473      H1480   1.084       .  S
C1474      C1475   1.420       .  A
C1475      C1476   1.409       .  A
C1475      C1482   1.514       .  S
C1476      C1477   1.404       .  A
C1476      H1481   1.083       .  S
C1477      C1478   1.423       .  A
C1478      C1479   1.516       .  S
C1479      F1483   1.385       .  S
C1479      F1484   1.382       .  S
C1479      F1485   1.384       .  S
C1482      F1486   1.382       .  S
C1482      F1487   1.384       .  S
C1482      F1488   1.385       .  S
C1489      C1490   1.397       .  A
C1489      C1494   1.404       .  A
C1489      H1496   1.089       .  S
C1491      C1492   1.402       .  A
C1491      C1498   1.515       .  S
C1492      H1497   1.083       .  S
C1493      C1494   1.421       .  A
C1494      C1495   1.519       .  S
C1495      F1499   1.385       .  S
C1495      F1500   1.382       .  S
C1495      F1501   1.378       .  S
C1498      F1502   1.375       .  S
C1498      F1503   1.383   1_545  S
C1498      F1504   1.385       .  S
C1505      C1506   1.402       .  A
C1505      C1510   1.406       .  A
C1505      H1512   1.083       .  S
C1506      C1507   1.431       .  A
C1507      C1508   1.402       .  A
C1507      C1514   1.521   1_565  S
C1508      C1509   1.391       .  A
C1508      H1513   1.083   1_565  S
C1509      C1510   1.418       .  A
C1510      C1511   1.515       .  S
C1511      F1515   1.385       .  S
C1511      F1516   1.380       .  S
C1511      F1517   1.381       .  S
C1514      F1518   1.381       .  S
C1514      F1519   1.377   1_545  S
C1514      F1520   1.385       .  S
C1521      C1522   1.398       .  A
C1521      C1526   1.404       .  A
C1521      H1528   1.084       .  S
C1522      C1523   1.422   1_565  A
C1523      C1524   1.399       .  A
C1523      C1530   1.506       .  S
C1524      C1525   1.391       .  A
C1524      H1529   1.084       .  S
C1525      C1526   1.424   1_545  A
C1526      C1527   1.519       .  S
C1527      F1531   1.384       .  S
C1527      F1532   1.381   1_565  S
C1527      F1533   1.381       .  S
C1530      F1534   1.382       .  S
C1530      F1535   1.381       .  S
C1530      F1536   1.385       .  S
C1537      C1538   1.405       .  A
C1537      C1542   1.412       .  A
C1537      H1544   1.084       .  S
C1538      C1539   1.419       .  A
C1539      C1540   1.406       .  A
C1539      C1546   1.516       .  S
C1540      C1541   1.401       .  A
C1540      H1545   1.083       .  S
C1541      C1542   1.417       .  A
C1542      C1543   1.515       .  S
C1543      F1547   1.383       .  S
C1543      F1548   1.384       .  S
C1543      F1549   1.382       .  S
C1546      F1550   1.384       .  S
C1546      F1551   1.384       .  S
C1546      F1552   1.383       .  S
C1553      C1554   1.394       .  A
C1553      C1558   1.404       .  A
C1553      H1560   1.084       .  S
C1554      C1555   1.410       .  A
C1555      C1556   1.411       .  A
C1555      C1562   1.518       .  S
C1556      C1557   1.415       .  A
C1556      H1561   1.082       .  S
C1557      C1558   1.427       .  A
C1558      C1559   1.519       .  S
C1559      F1563   1.383       .  S
C1559      F1564   1.381       .  S
C1559      F1565   1.379       .  S
C1562      F1566   1.383       .  S
C1562      F1567   1.383       .  S
C1562      F1568   1.384       .  S
C1569      C1570   1.407       .  A
C1569      C1574   1.402       .  A
C1569      H1576   1.082       .  S
C1570      C1571   1.431       .  A
C1571      C1572   1.410       .  A
C1571      C1578   1.521       .  S
C1572      C1573   1.397       .  A
C1572      H1577   1.083       .  S
C1573      C1574   1.410       .  A
C1574      C1575   1.508       .  S
C1575      F1579   1.385       .  S
C1575      F1580   1.383       .  S
C1575      F1581   1.382       .  S
C1578      F1582   1.383       .  S
C1578      F1583   1.383       .  S
C1578      F1584   1.385       .  S
C1585      C1590   1.406   1_554  A
C1585      H1592   1.083       .  S
C1586      C1587   1.416       .  A
C1587      C1588   1.405       .  A
C1587      C1594   1.519       .  S
C1588      H1593   1.082       .  S
C1589      C1590   1.426       .  A
C1590      C1591   1.522   1_655  S
C1591      F1595   1.385   1_456  S
C1591      F1596   1.383       .  S
C1591      F1597   1.379   1_556  S
C1594      F1598   1.382       .  S
C1594      F1599   1.380       .  S
C1594      F1600   1.385       .  S
C1601      C1602   1.404       .  A
C1601      C1606   1.410       .  A
C1601      H1608   1.084       .  S
C1602      C1603   1.423       .  A
C1603      C1604   1.410       .  A
C1603      C1610   1.514       .  S
C1604      C1605   1.402       .  A
C1604      H1609   1.084       .  S
C1605      C1606   1.420       .  A
C1606      C1607   1.513       .  S
C1607      F1611   1.384       .  S
C1607      F1612   1.383       .  S
C1607      F1613   1.383       .  S
C1610      F1614   1.383       .  S
C1610      F1615   1.383       .  S
C1610      F1616   1.384       .  S
C1617      C1618   1.412       .  A
C1617      C1622   1.423       .  A
C1617      H1624   1.083       .  S
C1618      C1619   1.402       .  A
C1619      C1620   1.398       .  A
C1619      C1626   1.519       .  S
C1620      C1621   1.414       .  A
C1620      H1625   1.073       .  S
C1621      C1622   1.421       .  A
C1622      C1623   1.516       .  S
C1623      F1627   1.385       .  S
C1623      F1628   1.383   1_455  S
C1623      F1629   1.383       .  S
C1626      F1630   1.382       .  S
C1626      F1631   1.382       .  S
C1626      F1632   1.384       .  S
C1633      C1634   1.406       .  A
C1633      C1638   1.408   1_655  A
C1633      H1640   1.085   1_655  S
C1634      C1635   1.415       .  A
C1635      C1636   1.411       .  A
C1635      C1642   1.518       .  S
C1636      C1637   1.411       .  A
C1636      H1641   1.084       .  S
C1637      C1638   1.419   1_655  A
C1638      C1639   1.517       .  S
C1639      F1643   1.384       .  S
C1639      F1644   1.378       .  S
C1639      F1645   1.383       .  S
C1642      F1646   1.383       .  S
C1642      F1647   1.382       .  S
C1642      F1648   1.385       .  S
C1649      C1650   1.405       .  A
C1649      C1654   1.411       .  A
C1650      C1651   1.419       .  A
C1651      C1652   1.406       .  A
C1651      C1658   1.521       .  S
C1652      C1653   1.406       .  A
C1652      H1657   1.078       .  S
C1653      C1654   1.423       .  A
C1655      F1659   1.385       .  S
C1655      F1660   1.384       .  S
C1658      F1662   1.381       .  S
C1658      F1663   1.382       .  S
C1658      F1664   1.385       .  S
C1665      C1666   1.398       .  A
C1665      C1670   1.402       .  A
C1665      H1672   1.082       .  S
C1667      C1668   1.403       .  A
C1667      C1674   1.516       .  S
C1668      C1669   1.407       .  A
C1668      H1673   1.083       .  S
C1670      C1671   1.518       .  S
C1671      F1675   1.385       .  S
C1671      F1676   1.375       .  S
C1671      F1677   1.380       .  S
C1674      F1678   1.385       .  S
C1674      F1679   1.385       .  S
C1674      F1680   1.381   1_455  S
C1681      C1682   1.402   1_545  A
C1681      C1686   1.401       .  A
C1681      H1688   1.084       .  S
C1682      C1683   1.409       .  A
C1683      C1684   1.411       .  A
C1683      C1690   1.513       .  S
C1684      C1685   1.412   1_565  A
C1684      H1689   1.083       .  S
C1685      C1686   1.415       .  A
C1686      C1687   1.509       .  S
C1687      F1691   1.383       .  S
C1687      F1692   1.381       .  S
C1687      F1693   1.385       .  S
C1690      F1694   1.383       .  S
C1690      F1695   1.380       .  S
C1690      F1696   1.384       .  S
C1697      C1698   1.404       .  A
C1697      C1702   1.411       .  A
C1697      H1704   1.083       .  S
C1698      C1699   1.435       .  A
C1699      C1700   1.411       .  A
C1699      C1706   1.521   1_565  S
C1700      C1701   1.394       .  A
C1700      H1705   1.084   1_565  S
C1701      C1702   1.419       .  A
C1702      C1703   1.513       .  S
C1703      F1707   1.385       .  S
C1703      F1708   1.383       .  S
C1703      F1709   1.381       .  S
C1706      F1710   1.384   1_545  S
C1706      F1711   1.383       .  S
C1706      F1712   1.385       .  S
C1713      C1714   1.402       .  A
C1713      C1718   1.403       .  A
C1713      H1720   1.080       .  S
C1714      C1715   1.423       .  A
C1715      C1716   1.412       .  A
C1715      C1722   1.520   1_655  S
C1716      C1717   1.405       .  A
C1716      H1721   1.083       .  S
C1717      C1718   1.422       .  A
C1718      C1719   1.522       .  S
C1719      F1723   1.385       .  S
C1719      F1724   1.380       .  S
C1719      F1725   1.382       .  S
C1722      F1726   1.384       .  S
C1722      F1727   1.382       .  S
C1722      F1728   1.385   1_455  S
C1729      C1730   1.407       .  A
C1729      C1734   1.405       .  A
C1729      H1736   1.083       .  S
C1730      C1731   1.406       .  A
C1731      C1732   1.407       .  A
C1731      C1738   1.515   1_455  S
C1732      C1733   1.413       .  A
C1732      H1737   1.082       .  S
C1733      C1734   1.413       .  A
C1734      C1735   1.513       .  S
C1735      F1739   1.385       .  S
C1735      F1740   1.382       .  S
C1735      F1741   1.383       .  S
C1738      F1742   1.383       .  S
C1738      F1743   1.381       .  S
C1738      F1744   1.384       .  S
C1745      C1746   1.395       .  A
C1745      C1750   1.410       .  A
C1745      H1752   1.082       .  S
C1746      C1747   1.425       .  A
C1747      C1748   1.415   1_655  A
C1747      C1754   1.517   1_655  S
C1748      C1749   1.402       .  A
C1748      H1753   1.083       .  S
C1749      C1750   1.432   1_455  A
C1750      C1751   1.517       .  S
C1751      F1755   1.385       .  S
C1751      F1756   1.375       .  S
C1751      F1757   1.382       .  S
C1754      F1758   1.383   1_455  S
C1754      F1759   1.382       .  S
C1754      F1760   1.385       .  S
C1761      C1762   1.405       .  A
C1761      C1766   1.411       .  A
C1761      H1768   1.084       .  S
C1762      C1763   1.419       .  A
C1763      C1764   1.415       .  A
C1763      C1770   1.514       .  S
C1764      C1765   1.408       .  A
C1764      H1769   1.083       .  S
C1765      C1766   1.420       .  A
C1766      C1767   1.512       .  S
C1767      F1771   1.379       .  S
C1767      F1772   1.382       .  S
C1767      F1773   1.385       .  S
C1770      F1774   1.378       .  S
C1770      F1775   1.383       .  S
C1770      F1776   1.385       .  S
C1777      C1778   1.407       .  A
C1777      C1782   1.406       .  A
C1777      H1784   1.082       .  S
C1778      C1779   1.425       .  A
C1779      C1780   1.404       .  A
C1779      C1786   1.519       .  S
C1780      C1781   1.399       .  A
C1780      H1785   1.083       .  S
C1781      C1782   1.417       .  A
C1782      C1783   1.522   1_545  S
C1783      F1787   1.385       .  S
C1783      F1788   1.382       .  S
C1783      F1789   1.384       .  S
C1786      F1790   1.377       .  S
C1786      F1791   1.380       .  S
C1786      F1792   1.385       .  S
C1793      C1794   1.410       .  A
C1793      C1798   1.413       .  A
C1793      H1800   1.083       .  S
C1794      C1795   1.412       .  A
C1795      C1796   1.412       .  A
C1795      C1802   1.515       .  S
C1796      C1797   1.407       .  A
C1797      C1798   1.412       .  A
C1798      C1799   1.517       .  S
C1799      F1803   1.385       .  S
C1799      F1804   1.383       .  S
C1802      F1806   1.383       .  S
C1809      C1810   1.397       .  A
C1809      C1814   1.403       .  A
C1809      H1816   1.084       .  S
C1810      C1811   1.422       .  A
C1811      C1812   1.416       .  A
C1811      C1818   1.510       .  S
C1812      C1813   1.402       .  A
C1812      H1817   1.083       .  S
C1813      C1814   1.422       .  A
C1814      C1815   1.516       .  S
C1815      F1819   1.385       .  S
C1815      F1820   1.380       .  S
C1815      F1821   1.380       .  S
C1818      F1822   1.382       .  S
C1818      F1823   1.378       .  S
C1818      F1824   1.385       .  S
C1825      C1826   1.402       .  A
C1825      C1830   1.411       .  A
C1825      H1832   1.085       .  S
C1826      C1827   1.422       .  A
C1827      C1828   1.414       .  A
C1827      C1834   1.518       .  S
C1828      C1829   1.404       .  A
C1828      H1833   1.081       .  S
C1829      C1830   1.422       .  A
C1830      C1831   1.515       .  S
C1831      F1835   1.384       .  S
C1831      F1836   1.382       .  S
C1831      F1837   1.384       .  S
C1834      F1838   1.381       .  S
C1834      F1839   1.384       .  S
C1834      F1840   1.385       .  S
C1841      C1842   1.403       .  A
C1841      C1846   1.426       .  A
C1841      H1848   1.083       .  S
C1842      C1843   1.432       .  A
C1843      C1844   1.409       .  A
C1843      C1850   1.507       .  S
C1844      C1845   1.393       .  A
C1844      H1849   1.084       .  S
C1845      C1846   1.432       .  A
C1846      C1847   1.508       .  S
C1847      F1851   1.385       .  S
C1847      F1852   1.377       .  S
C1847      F1853   1.381       .  S
C1850      F1854   1.378       .  S
C1850      F1855   1.376       .  S
C1850      F1856   1.385       .  S
C1857      C1858   1.402       .  A
C1857      C1862   1.412       .  A
C1857      H1864   1.083       .  S
C1858      C1859   1.409       .  A
C1859      C1860   1.408       .  A
C1859      C1866   1.520       .  S
C1860      C1861   1.417       .  A
C1860      H1865   1.082       .  S
C1861      C1862   1.427       .  A
C1862      C1863   1.519       .  S
C1863      F1867   1.385       .  S
C1863      F1868   1.380       .  S
C1863      F1869   1.377       .  S
C1866      F1870   1.384       .  S
C1866      F1871   1.382       .  S
C1866      F1872   1.385       .  S
C1873      C1874   1.400       .  A
C1873      C1878   1.402       .  A
C1873      H1880   1.083       .  S
C1874      C1875   1.431       .  A
C1875      C1876   1.408       .  A
C1875      C1882   1.519       .  S
C1876      C1877   1.394       .  A
C1876      H1881   1.083       .  S
C1877      C1878   1.417       .  A
C1878      C1879   1.515       .  S
C1879      F1883   1.385       .  S
C1879      F1884   1.381       .  S
C1879      F1885   1.381       .  S
C1882      F1886   1.378       .  S
C1882      F1887   1.383       .  S
C1882      F1888   1.385       .  S
C1889      C1890   1.410       .  A
C1889      C1894   1.403       .  A
C1889      H1896   1.082       .  S
C1890      C1891   1.411       .  A
C1891      C1892   1.412       .  A
C1891      C1898   1.514       .  S
C1892      C1893   1.412       .  A
C1892      H1897   1.083       .  S
C1893      C1894   1.409       .  A
C1894      C1895   1.517       .  S
C1895      F1899   1.385       .  S
C1895      F1900   1.382       .  S
C1895      F1901   1.382       .  S
C1898      F1902   1.380       .  S
C1898      F1903   1.382       .  S
C1898      F1904   1.385       .  S
C1905      C1906   1.396       .  A
C1905      C1910   1.407       .  A
C1905      H1912   1.084       .  S
C1907      C1908   1.413       .  A
C1907      C1914   1.512       .  S
C1908      H1913   1.083       .  S
C1909      C1910   1.424       .  A
C1910      C1911   1.513       .  S
C1911      F1915   1.385       .  S
C1911      F1916   1.380       .  S
C1911      F1917   1.380       .  S
C1914      F1918   1.379       .  S
C1914      F1919   1.382       .  S
C1914      F1920   1.385       .  S
C1921      C1922   1.401       .  A
C1921      C1926   1.408       .  A
C1921      H1928   1.084       .  S
C1922      C1923   1.423       .  A
C1923      C1924   1.418       .  A
C1923      C1930   1.518       .  S
C1924      C1925   1.406       .  A
C1924      H1929   1.083       .  S
C1925      C1926   1.421       .  A
C1926      C1927   1.512       .  S
C1927      F1931   1.384       .  S
C1927      F1932   1.384       .  S
C1927      F1933   1.383       .  S
C1930      F1934   1.384       .  S
C1930      F1935   1.378       .  S
C1930      F1936   1.384       .  S
C1937      C1938   1.402       .  A
C1937      C1942   1.408       .  A
C1937      H1944   1.083       .  S
C1938      C1939   1.422       .  A
C1939      C1940   1.403       .  A
C1940      C1941   1.402       .  A
C1940      H1945   1.078       .  S
C1941      C1942   1.422       .  A
C1942      C1943   1.516       .  S
C1943      F1947   1.385       .  S
C1943      F1948   1.381       .  S
C1943      F1949   1.383       .  S
C1946      F1951   1.381       .  S
C1946      F1952   1.385       .  S
C1953      C1954   1.405       .  A
C1953      C1958   1.408       .  A
C1953      H1960   1.085       .  S
C1954      C1955   1.414       .  A
C1955      C1956   1.420       .  A
C1956      C1957   1.412       .  A
C1956      H1961   1.083       .  S
C1957      C1958   1.415       .  A
C1958      C1959   1.516       .  S
C1959      F1963   1.384       .  S
C1959      F1964   1.383       .  S
C1959      F1965   1.383       .  S
C1962      F1967   1.384       .  S
C1962      F1968   1.385       .  S
C1969      C1970   1.405       .  A
C1969      H1976   1.070       .  S
C1971      C1972   1.416       .  A
C1971      C1978   1.520       .  S
C1972      C1973   1.409       .  A
C1972      H1977   1.084       .  S
C1973      C1974   1.423       .  A
C1974      C1975   1.522       .  S
C1975      F1979   1.384       .  S
C1975      F1980   1.379       .  S
C1978      F1982   1.384       .  S
C1985      C1986   1.394       .  A
C1985      C1990   1.404       .  A
C1985      H1992   1.084       .  S
C1986      C1987   1.423       .  A
C1987      C1988   1.422       .  A
C1987      C1994   1.508       .  S
C1988      C1989   1.404       .  A
C1988      H1993   1.083       .  S
C1989      C1990   1.430       .  A
C1990      C1991   1.515       .  S
C1991      F1995   1.385       .  S
C1991      F1996   1.374       .  S
C1991      F1997   1.378       .  S
C1994      F1998   1.382       .  S
C1994      F1999   1.378       .  S
C1994      F2000   1.385       .  S
C2001      C2002   1.401       .  A
C2001      C2006   1.400       .  A
C2001      H2008   1.084       .  S
C2002      C2003   1.415       .  A
C2003      C2004   1.407       .  A
C2003      C2010   1.519       .  S
C2004      C2005   1.404       .  A
C2004      H2009   1.081       .  S
C2005      C2006   1.409       .  A
C2006      C2007   1.511       .  S
C2007      F2011   1.382       .  S
C2007      F2012   1.383       .  S
C2007      F2013   1.378       .  S
C2010      F2014   1.384       .  S
C2010      F2015   1.382       .  S
C2010      F2016   1.385       .  S
C2017      C2018   1.394       .  A
C2017      C2022   1.397       .  A
C2017      H2024   1.083       .  S
C2018      C2019   1.432       .  A
C2019      C2020   1.401       .  A
C2019      C2026   1.520       .  S
C2020      C2021   1.391       .  A
C2020      H2025   1.085       .  S
C2021      C2022   1.415       .  A
C2022      C2023   1.504       .  S
C2023      F2027   1.385       .  S
C2023      F2028   1.382       .  S
C2023      F2029   1.380       .  S
C2026      F2030   1.375       .  S
C2026      F2031   1.383       .  S
C2026      F2032   1.384       .  S
C2033      C2034   1.391       .  A
C2033      C2038   1.400       .  A
C2033      H2040   1.084       .  S
C2034      C2035   1.417       .  A
C2035      C2036   1.405       .  A
C2035      C2042   1.514       .  S
C2036      C2037   1.400       .  A
C2036      H2041   1.083       .  S
C2037      C2038   1.431       .  A
C2038      C2039   1.524       .  S
C2039      F2043   1.385       .  S
C2039      F2044   1.384       .  S
C2039      F2045   1.383       .  S
C2042      F2046   1.379       .  S
C2042      F2047   1.383       .  S
C2042      F2048   1.385       .  S
C2049      C2050   1.405       .  A
C2049      C2054   1.412       .  A
C2049      H2056   1.084       .  S
C2050      C2051   1.417       .  A
C2051      C2052   1.408       .  A
C2051      C2058   1.510       .  S
C2052      C2053   1.404       .  A
C2052      H2057   1.080       .  S
C2053      C2054   1.421       .  A
C2054      C2055   1.512       .  S
C2055      F2059   1.385       .  S
C2055      F2060   1.381       .  S
C2055      F2061   1.378       .  S
C2058      F2062   1.382       .  S
C2058      F2063   1.378       .  S
C2058      F2064   1.385       .  S
C2065      C2066   1.410       .  A
C2065      C2070   1.414       .  A
C2065      H2072   1.083       .  S
C2066      C2067   1.416       .  A
C2067      C2068   1.411       .  A
C2067      C2074   1.517       .  S
C2068      C2069   1.408       .  A
C2068      H2073   1.084       .  S
C2069      C2070   1.412       .  A
C2070      C2071   1.515       .  S
C2071      F2075   1.385       .  S
C2071      F2076   1.383       .  S
C2071      F2077   1.383       .  S
C2074      F2078   1.383       .  S
C2074      F2079   1.383       .  S
C2074      F2080   1.384       .  S
C2081      C2082   1.411       .  A
C2081      C2086   1.406       .  A
C2081      H2088   1.079       .  S
C2082      C2083   1.431       .  A
C2083      C2084   1.412       .  A
C2083      C2090   1.526       .  S
C2084      C2085   1.402       .  A
C2084      H2089   1.082       .  S
C2085      C2086   1.410       .  A
C2086      C2087   1.518       .  S
C2087      F2091   1.384       .  S
C2087      F2092   1.384       .  S
C2087      F2093   1.382       .  S
C2090      F2094   1.382       .  S
C2090      F2095   1.383       .  S
C2090      F2096   1.385       .  S
C2097      C2098   1.396       .  A
C2097      C2102   1.403       .  A
C2097      H2104   1.083       .  S
C2098      C2099   1.408       .  A
C2099      C2100   1.405       .  A
C2099      C2106   1.514       .  S
C2100      C2101   1.409       .  A
C2100      H2105   1.083       .  S
C2101      C2102   1.424       .  A
C2102      C2103   1.518       .  S
C2103      F2107   1.384       .  S
C2103      F2108   1.381       .  S
C2103      F2109   1.382       .  S
C2106      F2110   1.381       .  S
C2106      F2111   1.383       .  S
C2106      F2112   1.385       .  S
C2113      C2114   1.399       .  A
C2113      C2118   1.405       .  A
C2113      H2120   1.066       .  S
C2114      C2115   1.407       .  A
C2115      C2116   1.409       .  A
C2115      C2122   1.515       .  S
C2116      C2117   1.414       .  A
C2116      H2121   1.083       .  S
C2117      C2118   1.418       .  A
C2118      C2119   1.519       .  S
C2119      F2123   1.384       .  S
C2119      F2124   1.384       .  S
C2119      F2125   1.382       .  S
C2122      F2126   1.383       .  S
C2122      F2127   1.380       .  S
C2122      F2128   1.384       .  S
C2129      C2130   1.389       .  A
C2129      C2134   1.398       .  A
C2129      H2136   1.084       .  S
C2130      C2131   1.421       .  A
C2131      C2132   1.409       .  A
C2131      C2138   1.517       .  S
C2132      C2133   1.402       .  A
C2132      H2137   1.085       .  S
C2133      C2134   1.433       .  A
C2134      C2135   1.521       .  S
C2135      F2139   1.385       .  S
C2135      F2140   1.370       .  S
C2135      F2141   1.382       .  S
C2138      F2142   1.379       .  S
C2138      F2143   1.383       .  S
C2138      F2144   1.384       .  S
C2145      H2152   1.083       .  S
C2146      C2147   1.424       .  A
C2147      C2148   1.404       .  A
C2147      C2154   1.514       .  S
C2148      C2149   1.396       .  A
C2148      H2153   1.084       .  S
C2149      C2150   1.424       .  A
C2151      F2155   1.378       .  S
C2151      F2156   1.382       .  S
C2154      F2158   1.379       .  S
C2154      F2159   1.378       .  S
C2154      F2160   1.385       .  S
C2161      C2162   1.408   1_556  A
C2161      C2166   1.407   1_556  A
C2161      H2168   1.074       .  S
C2163      C2164   1.405       .  A
C2163      C2170   1.522       .  S
C2164      C2165   1.402       .  A
C2164      H2169   1.080       .  S
C2166      C2167   1.520   1_554  S
C2167      F2171   1.384       .  S
C2167      F2172   1.383   1_556  S
C2167      F2173   1.382       .  S
C2170      F2174   1.384       .  S
C2170      F2175   1.383       .  S
C2170      F2176   1.385       .  S
C2177      C2178   1.399       .  A
C2177      C2182   1.403       .  A
C2177      H2184   1.083       .  S
C2178      C2179   1.426       .  A
C2179      C2180   1.403       .  A
C2179      C2186   1.522       .  S
C2180      C2181   1.397       .  A
C2180      H2185   1.084       .  S
C2181      C2182   1.422       .  A
C2182      C2183   1.521       .  S
C2183      F2187   1.385       .  S
C2183      F2188   1.382       .  S
C2183      F2189   1.382       .  S
C2186      F2190   1.383       .  S
C2186      F2191   1.382       .  S
C2186      F2192   1.385       .  S
C2193      C2194   1.394       .  A
C2193      C2198   1.405       .  A
C2193      H2200   1.085       .  S
C2194      C2195   1.417       .  A
C2195      C2196   1.401       .  A
C2195      C2202   1.509       .  S
C2196      C2197   1.397       .  A
C2196      H2201   1.083       .  S
C2197      C2198   1.432       .  A
C2198      C2199   1.520       .  S
C2199      F2203   1.384       .  S
C2199      F2204   1.376       .  S
C2199      F2205   1.383       .  S
C2202      F2206   1.382       .  S
C2202      F2207   1.380       .  S
C2202      F2208   1.385       .  S
C2209      C2210   1.404       .  A
C2209      C2214   1.407       .  A
C2209      H2216   1.084       .  S
C2210      C2211   1.420       .  A
C2211      C2212   1.407       .  A
C2211      C2218   1.517       .  S
C2212      C2213   1.403       .  A
C2212      H2217   1.083       .  S
C2213      C2214   1.416       .  A
C2214      C2215   1.514       .  S
C2215      F2219   1.384       .  S
C2215      F2220   1.384       .  S
C2215      F2221   1.382       .  S
C2218      F2222   1.384       .  S
C2218      F2223   1.383       .  S
C2218      F2224   1.383       .  S
C2225      C2226   1.409       .  A
C2225      C2230   1.399       .  A
C2225      H2232   1.082       .  S
C2227      C2228   1.409   1_556  A
C2227      C2234   1.521       .  S
C2228      H2233   1.084   1_554  S
C2229      C2230   1.408       .  A
C2230      C2231   1.508       .  S
C2231      F2235   1.385       .  S
C2231      F2236   1.382       .  S
C2231      F2237   1.383       .  S
C2234      F2238   1.383       .  S
C2234      F2239   1.383       .  S
C2234      F2240   1.385       .  S
