geometry optimzed in LAMMPS
_audit_creation_date              2020-12-01 
_audit_creation_method            'lammps2cif' 
_symmetry_space_group_name_H-M    'P1' 
_symmetry_Int_Tables_number       1 
_symmetry_cell_setting            triclinic 
loop_ 
_symmetry_equiv_pos_as_xyz 
  x,y,z 
_cell_length_a                    48.82967582 
_cell_length_b                    49.049787273512834 
_cell_length_c                    36.78848366615235 
_cell_angle_alpha                 89.87580690993987 
_cell_angle_beta                  89.74872681713035 
_cell_angle_gamma                 119.52368905805535 
loop_ 
_atom_site_label 
_atom_site_type_symbol 
_atom_site_fract_x 
_atom_site_fract_y 
_atom_site_fract_z 
_atom_site_charge 
O1          O  0.32830206  0.24492941  0.60762005    -0.82300
C2          C  0.36888247  0.37015573  0.58355215     0.97100
O3          O  0.34874737  0.35524946  0.60813812    -0.71400
O4          O  0.31359541  0.30981384  0.56512498    -0.75000
Al5        Al  0.32749108  0.31038623  0.61239273     1.49000
C6          C  0.30840941  0.28887255  0.54240491     0.92300
O7          O  0.37939480  0.29987197  0.53195831    -0.81200
O8          O  0.40803863  0.30755378  0.63431486    -0.74800
Al9        Al  0.35442090  0.27435103  0.57139887     1.90100
O10         O  0.41913217  0.33295382  0.56452969    -0.73800
O11         O  0.38809944  0.34803156  0.65450149    -0.73700
O12         O  0.39274355  0.36655516  0.58084804    -0.79300
O13         O  0.33857555  0.31160055  0.66105264    -0.77600
O14         O  0.36031657  0.30682129  0.59758138    -1.13700
O15         O  0.29866310  0.26593308  0.61914548    -0.72900
C16         C  0.30298324  0.24252507  0.61986163     0.97800
C17         C  0.40764737  0.32138748  0.53389259     0.94200
Al18       Al  0.39920670  0.33674415  0.60811333     1.55600
O19         O  0.31964075  0.27078106  0.54601166    -0.77500
C20         C  0.36383255  0.33280720  0.67428105     0.98400
C21         C  0.40354475  0.28190192  0.62053718     0.93300
O22         O  0.38820575  0.27151126  0.59157420    -0.82800
O23         O  0.25004083  0.31163109  0.90434094    -0.82300
C24         C  0.37649102  0.36154497  0.91074983     0.97100
O25         O  0.36244315  0.34090956  0.88647649    -0.71400
O26         O  0.31872746  0.30064565  0.92755452    -0.75000
Al27       Al  0.31718857  0.31724105  0.88286881     1.49000
C28         C  0.30294977  0.29730324  0.95563776     0.92300
O29         O  0.31291071  0.37139007  0.96707792    -0.81200
O30         O  0.30543188  0.39100004  0.86286028    -0.74800
Al31       Al  0.28345278  0.34206212  0.93307848     1.90100
O32         O  0.33620919  0.40948117  0.92836053    -0.73800
O33         O  0.35166526  0.37773590  0.83975207    -0.73700
O34         O  0.37241048  0.38521126  0.91178713    -0.79300
O35         O  0.31582487  0.32892565  0.83488578    -0.77600
O36         O  0.31272762  0.34855755  0.90065945    -1.13700
O37         O  0.27307467  0.28819705  0.87758430    -0.72900
C38         C  0.24856906  0.28951468  0.88546863     0.97800
C39         C  0.33041415  0.40023884  0.96090040     0.94200
Al40       Al  0.33945731  0.38785879  0.88632768     1.55600
O41         O  0.28697738  0.31089868  0.95954636    -0.77500
C42         C  0.33795473  0.35308193  0.82098326     0.98400
C43         C  0.28022146  0.38483159  0.88023503     0.93300
O44         O  0.27438751  0.37197298  0.91145311    -0.82800
O45         O  0.26369922  0.07688383  0.61795007    -0.82300
C46         C  0.14088089  0.49149465  0.58228318     0.97100
O47         O  0.15725149  0.48553095  0.60385414    -0.71400
O48         O  0.20460803  0.00201890  0.56457744    -0.75000
Al49       Al  0.19821496  0.01008998  0.61282788     1.49000
C50         C  0.22856564  0.01951947  0.54593993     0.92300
O51         O  0.21343503  0.07864817  0.53874714    -0.81200
O52         O  0.19522200  0.09141424  0.63965043    -0.74800
Al53       Al  0.23633581  0.07629492  0.57985072     1.90100
O54         O  0.17469209  0.07887874  0.56839093    -0.73800
O55         O  0.15689729  0.02980300  0.65649352    -0.73700
O56         O  0.14199781  0.01935509  0.58166028    -0.79300
O57         O  0.19148030  0.01387610  0.66207815    -0.77600
O58         O  0.20167601  0.04714186  0.60176380    -1.13700
O59         O  0.24170617  0.02598018  0.62423616    -0.72900
C60         C  0.26539394  0.05290919  0.62750091     0.97800
C61         C  0.18962821  0.08246389  0.53900057     0.94200
Al62       Al  0.16970190  0.05412404  0.61120074     1.55600
O63         O  0.24405493  0.04842770  0.55230648    -0.77500
C64         C  0.16939171  0.01704843  0.67520313     0.98400
C65         C  0.22106560  0.11409410  0.62828793     0.93300
O66         O  0.23622430  0.11048384  0.60278309    -0.82800
O67         O  0.15878861  0.40192156  0.89138513    -0.82300
C68         C  0.14575634  0.00598866  0.91621590     0.97100
O69         O  0.16592673  0.00725321  0.89348523    -0.71400
O70         O  0.19329820  0.48548125  0.93127795    -0.75000
Al71       Al  0.17675620  0.47520583  0.88450424     1.49000
C72         C  0.19653766  0.46676477  0.95158376     0.92300
O73         O  0.11838108  0.42327754  0.96635762    -0.81200
O74         O  0.08998675  0.40467803  0.86238391    -0.74800
Al75       Al  0.13838337  0.41378186  0.92733803     1.90100
O76         O  0.08171518  0.42303616  0.93231099    -0.73800
O77         O  0.11914106  0.46580091  0.84169630    -0.73700
O78         O  0.11779261  0.48188978  0.91449766    -0.79300
O79         O  0.16500330  0.46870527  0.83552611    -0.77600
O80         O  0.14013941  0.44427391  0.89981680    -1.13700
O81         O  0.19562674  0.44926359  0.87608588    -0.72900
C82         C  0.18562058  0.42002990  0.87766645     0.97800
C83         C  0.09183128  0.42174613  0.96362006     0.94200
Al84       Al  0.10469349  0.44392236  0.88825898     1.55600
O85         O  0.17710052  0.43795607  0.95101153    -0.77500
C86         C  0.14241538  0.47051504  0.82201504     0.98400
C87         C  0.08801889  0.38047313  0.87768202     0.93300
O88         O  0.09932588  0.38214373  0.90888332    -0.82800
O89         O  0.41654849  0.16130636  0.60817658    -0.82300
C90         C  0.01527969  0.13789857  0.57856881     0.97100
O91         O  0.01823270  0.15868878  0.60099721    -0.71400
O92         O  0.49612022  0.18823760  0.55855601    -0.75000
Al93       Al  0.48859867  0.17366220  0.60664790     1.49000
C94         C  0.47659893  0.19210440  0.54034696     0.92300
O95         O  0.42642079  0.11377956  0.53128884    -0.81200
O96         O  0.41571401  0.08782279  0.63572711    -0.74800
Al97       Al  0.42312415  0.13728212  0.57141868     1.90100
O98         O  0.42916678  0.07831442  0.56453436    -0.73800
O99         O  0.47805352  0.11621992  0.65103839    -0.73700
O100        O  0.48986745  0.11259600  0.57645911    -0.79300
O101        O  0.48517183  0.16365865  0.65625595    -0.77600
O102        O  0.45486963  0.13757104  0.59512404    -1.13700
O103        O  0.46613601  0.19557964  0.61719952    -0.72900
C104        C  0.43740952  0.18804060  0.61912375     0.97800
C105        C  0.42429431  0.08705420  0.53397691     0.94200
Al106      Al  0.45341798  0.10154375  0.60635114     1.55600
O107        O  0.44756327  0.17412558  0.54436552    -0.77500
C108        C  0.48689852  0.14093943  0.66951944     0.98400
C109        C  0.39095398  0.08690596  0.62352317     0.93300
O110        O  0.39148004  0.10077273  0.59441904    -0.82800
O111        O  0.08309490  0.25354602  0.87527289    -0.82300
C112        C  0.49543677  0.13200375  0.91071158     0.97100
O113        O  0.49145599  0.14802656  0.88671593    -0.71400
O114        O  0.00564804  0.19747432  0.92762987    -0.75000
Al115      Al  0.01520835  0.18937917  0.88072602     1.49000
C116        C  0.02321832  0.22214427  0.94476974     0.92300
O117        O  0.08191777  0.20567712  0.95854046    -0.81200
O118        O  0.09697431  0.18401917  0.86066347    -0.74800
Al119      Al  0.08078545  0.22728489  0.91541537     1.90100
O120        O  0.08131442  0.16542447  0.93218041    -0.73800
O121        O  0.03594723  0.14657786  0.84205054    -0.73700
O122        O  0.02225052  0.13341086  0.91647256    -0.79300
O123        O  0.02096222  0.18149641  0.83243623    -0.77600
O124        O  0.05169680  0.19237447  0.89442790    -1.13700
O125        O  0.03226600  0.23252488  0.86736451    -0.72900
C126        C  0.05962321  0.25584101  0.86487173     0.97800
C127        C  0.08608630  0.18219939  0.96002010     0.94200
Al128      Al  0.05830581  0.15988531  0.88802087     1.55600
O129        O  0.05251659  0.23641207  0.93993646    -0.77500
C130        C  0.02557118  0.15991758  0.82110680     0.98400
C131        C  0.11964815  0.20943948  0.87230092     0.93300
O132        O  0.11522768  0.22580080  0.89529514    -0.82800
O133        O  0.13155768  0.23035060  0.37992797    -0.82300
C134        C  0.16042109  0.13698658  0.41511397     0.97100
O135        O  0.13349594  0.13042279  0.40257310    -0.71400
O136        O  0.10546433  0.15589379  0.43714756    -0.75000
Al137      Al  0.11715195  0.15834967  0.38754578     1.49000
C138        C  0.10585739  0.17663612  0.45742051     0.92300
O139        O  0.18434939  0.22681290  0.44953726    -0.81200
O140        O  0.19942513  0.22842576  0.34295939    -0.74800
Al141      Al  0.15715334  0.22674109  0.41362807     1.90100
O142        O  0.21608935  0.22247254  0.41090131    -0.73800
O143        O  0.17157801  0.16612492  0.33655684    -0.73700
O144        O  0.18437130  0.16267107  0.40746306    -0.79300
O145        O  0.12244991  0.15475437  0.33636435    -0.77600
O146        O  0.15431873  0.19304102  0.39214003    -1.13700
O147        O  0.09465596  0.18101943  0.37411377    -0.72900
C148        C  0.10455032  0.21025639  0.37003980     0.97800
C149        C  0.21139879  0.23173267  0.44084053     0.94200
Al150      Al  0.18954538  0.19440864  0.37574383     1.55600
O151        O  0.12282183  0.20512240  0.44851793    -0.77500
C152        C  0.14562556  0.15519493  0.32065527     0.98400
C153        C  0.20575697  0.25485659  0.35567869     0.93300
O154        O  0.19198880  0.25664017  0.38412951    -0.82800
O155        O  0.23306998  0.11403776  0.12204553    -0.82300
C156        C  0.14813548  0.15288217  0.07577213     0.97100
O157        O  0.13976298  0.12651501  0.09089538    -0.71400
O158        O  0.16441919  0.09792486  0.05424696    -0.75000
Al159      Al  0.16523377  0.10708245  0.10453405     1.49000
C160        C  0.18519033  0.09485494  0.03720904     0.92300
O161        O  0.24249951  0.16912637  0.04659112    -0.81200
O162        O  0.23755455  0.18779993  0.14978325    -0.74800
Al163      Al  0.23572352  0.14115744  0.08489022     1.90100
O164        O  0.23649681  0.20307846  0.07942726    -0.73800
O165        O  0.17515421  0.16220444  0.15305220    -0.73700
O166        O  0.17558131  0.17524891  0.08036934    -0.79300
O167        O  0.16182752  0.11248377  0.15574008    -0.77600
O168        O  0.20219548  0.14238786  0.10132979    -1.13700
O169        O  0.18311281  0.07963900  0.11643687    -0.72900
C170        C  0.21104800  0.08633746  0.12462986     0.97800
C171        C  0.24799179  0.19666919  0.05216184     0.94200
Al172      Al  0.20557161  0.17884098  0.11456461     1.55600
O173        O  0.21292611  0.10732386  0.04992368    -0.77500
C174        C  0.16325262  0.13652842  0.17021961     0.98400
C175        C  0.26396982  0.19089695  0.14079046     0.93300
O176        O  0.26590663  0.17483461  0.11498635    -0.82800
O177        O  0.28218400  0.38045739  0.39150204    -0.82300
C178        C  0.37389325  0.00094713  0.41098446     0.97100
O179        O  0.37596825  0.47290770  0.41250544    -0.71400
O180        O  0.34414746  0.41383587  0.42693911    -0.75000
Al181      Al  0.34846377  0.43779671  0.38365925     1.49000
C182        C  0.32863335  0.41021916  0.45589539     0.92300
O183        O  0.27326234  0.44190657  0.44194132    -0.81200
O184        O  0.27466551  0.46446680  0.37179796    -0.74800
Al185      Al  0.28147328  0.41448428  0.41440828     1.90100
O186        O  0.31272322  0.48878675  0.43074963    -0.73800
O187        O  0.32442064  0.47590429  0.33289576    -0.73700
O188        O  0.35725266  0.00613149  0.38862041    -0.79300
O189        O  0.36014097  0.46117322  0.33815228    -0.77600
O190        O  0.31602447  0.44409046  0.39305482    -1.13700
O191        O  0.32347077  0.40061933  0.35520374    -0.72900
C192        C  0.29742285  0.37776748  0.36541627     0.97800
C193        C  0.28861435  0.47070086  0.44901759     0.94200
Al194      Al  0.31868528  0.48077005  0.38210094     1.55600
O195        O  0.30421583  0.41282574  0.45529126    -0.77500
C196        C  0.34525687  0.47106967  0.31905366     0.98400
C197        C  0.25159243  0.43722687  0.36759420     0.93300
O198        O  0.25425495  0.41357927  0.37604594    -0.82800
O199        O  0.37808144  0.10176307  0.08647999    -0.82300
C200        C  0.36829769  0.48936981  0.07979932     0.97100
O201        O  0.39200838  0.01604073  0.07559877    -0.71400
O202        O  0.41485383  0.07553888  0.06040970    -0.75000
Al203      Al  0.39495736  0.05080147  0.10327259     1.49000
C204        C  0.40412277  0.07534063  0.02916548     0.92300
O205        O  0.31500371  0.03241484  0.03821978    -0.81200
O206        O  0.29274636  0.01426464  0.11255052    -0.74800
Al207      Al  0.34737365  0.06442603  0.06454550     1.90100
O208        O  0.31066821  0.98836352  0.05866272    -0.73800
O209        O  0.33428645  0.01161670  0.15499508    -0.73700
O210        O  0.34699708  0.48254664  0.10330675    -0.79300
O211        O  0.38461740  0.02777447  0.14977062    -0.77600
O212        O  0.35539178  0.03939370  0.09149002    -1.13700
O213        O  0.40026183  0.08762207  0.12925542    -0.72900
C214        C  0.39386381  0.10767093  0.11532847     0.97800
C215        C  0.30345126  0.00320643  0.03652241     0.94200
Al216      Al  0.32429146  0.00205147  0.10594240     1.55600
O217        O  0.37533168  0.06709734  0.02588917    -0.77500
C218        C  0.35938046  0.01509775  0.16851693     0.98400
C219        C  0.29404307  0.04055412  0.11196124     0.93300
O220        O  0.31795281  0.06430475  0.09907957    -0.82800
O221        O  0.38602731  0.27632796  0.10018268    -0.82300
C222        C  0.00719830  0.36947517  0.08512109     0.97100
O223        O  0.48203961  0.36399763  0.08232940    -0.71400
O224        O  0.42097743  0.33548676  0.07103004    -0.75000
Al225      Al  0.44648125  0.33705481  0.11256448     1.49000
C226        C  0.41799428  0.32280787  0.04013752     0.92300
O227        O  0.44360481  0.26048846  0.04891161    -0.81200
O228        O  0.46427241  0.25832793  0.11974441    -0.74800
Al229      Al  0.41867864  0.27240627  0.07699533     1.90100
O230        O  0.49186179  0.29681711  0.06078258    -0.73800
O231        O  0.48208455  0.30831626  0.15965230    -0.73700
O232        O  0.01359526  0.35127696  0.10278136    -0.79300
O233        O  0.47218557  0.34711833  0.15645771    -0.77600
O234        O  0.45002094  0.30394767  0.09998393    -1.13700
O235        O  0.40968400  0.31119021  0.14303639    -0.72900
C236        C  0.38552384  0.28698775  0.13114214     0.97800
C237        C  0.47262596  0.27382905  0.04240322     0.94200
Al238      Al  0.48490601  0.30266286  0.10972170     1.55600
O239        O  0.42095631  0.29868100  0.03756385    -0.77500
C240        C  0.48279572  0.33193958  0.17381340     0.98400
C241        C  0.43571543  0.23746747  0.12316553     0.93300
O242        O  0.41416634  0.24335257  0.11396746    -0.82800
O243        O  0.12181979  0.38755408  0.40037326    -0.82300
C244        C  0.49605493  0.36233081  0.41294940     0.97100
O245        O  0.02689153  0.38575744  0.41669817    -0.71400
O246        O  0.08699961  0.41529939  0.42987661    -0.75000
Al247      Al  0.06315867  0.39383019  0.38787024     1.49000
C248        C  0.09065312  0.40582252  0.46042732     0.92300
O249        O  0.06030554  0.31792545  0.45115380    -0.81200
O250        O  0.04010179  0.29570549  0.37973586    -0.74800
Al251      Al  0.08775402  0.35309263  0.42346600     1.90100
O252        O  0.01284174  0.30800060  0.43682933    -0.73800
O253        O  0.02795706  0.33148993  0.33863206    -0.73700
O254        O  0.49132747  0.34125935  0.39015579    -0.79300
O255        O  0.03966445  0.38065122  0.34243983    -0.77600
O256        O  0.05800996  0.35623927  0.39950192    -1.13700
O257        O  0.10139826  0.40560970  0.36004039    -0.72900
C258        C  0.12476183  0.40402162  0.37276693     0.97800
C259        C  0.03101793  0.30231938  0.45554267     0.94200
Al260      Al  0.02219117  0.32182260  0.38813481     1.55600
O261        O  0.08739571  0.37863278  0.46315879    -0.77500
C262        C  0.03034321  0.35579542  0.32407439     0.98400
C263        C  0.06776329  0.30034791  0.37697271     0.93300
O264        O  0.09092149  0.32625711  0.38686976    -0.82800
C265        C  0.02130693  0.35375608  0.28531598    -0.00600
C266        C  0.02670632  0.33362599  0.26333197    -0.12500
C267        C  0.01484438  0.32621077  0.22820103     0.01600
C268        C  0.49704476  0.34178053  0.21058349    -0.00700
C269        C  0.48715462  0.35775754  0.23428389    -0.12500
C270        C  0.49820163  0.36431376  0.27029120     0.01500
H271        H  0.03978083  0.32283281  0.27411851     0.14500
H272        H  0.47001166  0.36418154  0.22511475     0.14500
C273        C  0.48644245  0.37964882  0.29404448     0.36100
C274        C  0.02123258  0.30435276  0.20868460     0.36000
N275        N  0.47715678  0.39204013  0.31314445    -0.44200
N276        N  0.02628525  0.28670488  0.19334144    -0.44200
C277        C  0.42700981  0.20474603  0.13378969    -0.00600
C278        C  0.39492442  0.18320440  0.13723986    -0.12500
C279        C  0.38367201  0.15115193  0.13397279     0.01600
C280        C  0.40482203  0.13928786  0.13075813    -0.00700
C281        C  0.43722252  0.16050372  0.13265936    -0.12500
C282        C  0.44853610  0.19309562  0.13338105     0.01500
H283        H  0.37802802  0.19149676  0.13815183     0.14500
H284        H  0.45372463  0.15188452  0.12948544     0.14500
C285        C  0.48207144  0.21366678  0.13013449     0.36100
C286        C  0.35026480  0.13227667  0.12850306     0.36000
N287        N  0.50895201  0.23012392  0.12729349    -0.44200
N288        N  0.32351812  0.11947851  0.12298302    -0.44200
C289        C  0.15667850  0.42015534  0.35651772    -0.00600
C290        C  0.16603052  0.40121113  0.33780852    -0.12500
C291        C  0.19744402  0.40769087  0.33806900     0.01600
C292        C  0.22032216  0.43359009  0.35756276    -0.00700
C293        C  0.21169281  0.45486189  0.37212738    -0.12500
C294        C  0.18021698  0.44831996  0.37171374     0.01500
H295        H  0.14817242  0.37973160  0.32576808     0.14500
H296        H  0.22902123  0.47541371  0.38647784     0.14500
C297        C  0.17225704  0.46964302  0.38958486     0.36100
C298        C  0.20535645  0.38739318  0.31798615     0.36000
N299        N  0.16629411  0.48717887  0.40359581    -0.44200
N300        N  0.21107295  0.37118201  0.30069100    -0.44200
C301        C  0.35778765  0.00200542  0.20552639    -0.00600
C302        C  0.38194401  0.01821625  0.23082682    -0.12500
C303        C  0.37847428  0.00783207  0.26722065     0.01600
C304        C  0.35127245  0.47715857  0.27982350    -0.00700
C305        C  0.32491876  0.46542646  0.25738740    -0.12500
C306        C  0.32741438  0.47555972  0.22156479     0.01500
H307        H  0.40261406  0.03988146  0.22275860     0.14500
H308        H  0.30194845  0.44877290  0.26834862     0.14500
C309        C  0.29913491  0.46083789  0.19992343     0.36100
C310        C  0.40207655  0.02699695  0.29334649     0.36000
N311        N  0.27641333  0.44880588  0.18277153    -0.44200
N312        N  0.42082443  0.04242582  0.31444080    -0.44200
C313        C  0.35605758  0.26842426  0.15228871    -0.00600
C314        C  0.35003295  0.23857862  0.16385017    -0.12500
C315        C  0.31923388  0.21301876  0.16489907     0.01600
C316        C  0.29367728  0.21722188  0.15520746    -0.00700
C317        C  0.29931013  0.24795092  0.14934351    -0.12500
C318        C  0.33023906  0.27342195  0.14746941     0.01500
H319        H  0.36964552  0.23438363  0.16782830     0.14500
H320        H  0.27985509  0.25160185  0.14203981     0.14500
C321        C  0.33506153  0.30378111  0.13669276     0.36100
C322        C  0.31448646  0.18229173  0.17365306     0.36000
N323        N  0.33891280  0.32817996  0.12829989    -0.44200
N324        N  0.31051172  0.15765886  0.18105471    -0.44200
C325        C  0.26624404  0.04314822  0.12330776    -0.00600
C326        C  0.24052548  0.03212324  0.09964067    -0.12500
C327        C  0.21753560  0.04122581  0.10390648     0.01600
C328        C  0.22073997  0.06249450  0.13164308    -0.00700
C329        C  0.24392167  0.06960717  0.15826578    -0.12500
C330        C  0.26637245  0.05977186  0.15451455     0.01500
H331        H  0.23964814  0.01829567  0.07622737     0.14500
H332        H  0.24647326  0.08556182  0.18003477     0.14500
C333        C  0.29033623  0.06850796  0.18185868     0.36100
C334        C  0.19286005  0.03095889  0.07724722     0.36000
N335        N  0.30943062  0.07543950  0.20392166    -0.44200
N336        N  0.17294325  0.02210012  0.05597437    -0.44200
C337        C  0.28273764  0.34680640  0.34771020    -0.00600
C338        C  0.25593919  0.33888538  0.32668283    -0.12500
C339        C  0.23109041  0.30782546  0.32506209     0.01600
C340        C  0.23374518  0.28393933  0.34308800    -0.00700
C341        C  0.26252905  0.29128747  0.35943961    -0.12500
C342        C  0.28670490  0.32248946  0.36257011     0.01500
H343        H  0.25296391  0.35754399  0.31523591     0.14500
H344        H  0.26468794  0.27308332  0.37364299     0.14500
C345        C  0.31337604  0.32924709  0.38522924     0.36100
C346        C  0.20209826  0.30140565  0.30773661     0.36000
N347        N  0.33461845  0.33453071  0.40355472    -0.44200
N348        N  0.17888531  0.29633240  0.29376803    -0.44200
C349        C  0.14365583  0.14432678  0.28267390    -0.00600
C350        C  0.13268690  0.15666623  0.25561959    -0.12500
C351        C  0.13720552  0.15283348  0.21865766     0.01600
C352        C  0.15236211  0.13576944  0.20819951    -0.00700
C353        C  0.16087934  0.12119726  0.23527976    -0.12500
C354        C  0.15696826  0.12561142  0.27224755     0.01500
H355        H  0.12240371  0.17102371  0.26334412     0.14500
H356        H  0.17240067  0.10795490  0.22765247     0.14500
C357        C  0.16745627  0.11131279  0.29911811     0.36100
C358        C  0.12675879  0.16729523  0.19195807     0.36000
N359        N  0.17577168  0.09989001  0.32078883    -0.44200
N360        N  0.11845547  0.17888269  0.17048508    -0.44200
C361        C  0.07173444  0.27335613  0.36607047    -0.00600
C362        C  0.05296608  0.24439334  0.38372842    -0.12500
C363        C  0.05955964  0.21969961  0.38030309     0.01600
C364        C  0.08477187  0.22355564  0.35805170    -0.00700
C365        C  0.09973860  0.25039573  0.33571324    -0.12500
C366        C  0.09398738  0.27552762  0.34015007     0.01500
H367        H  0.03486224  0.24197669  0.40276818     0.14500
H368        H  0.11886159  0.25334406  0.31804956     0.14500
C369        C  0.11152805  0.30319011  0.31814039     0.36100
C370        C  0.04322910  0.19262420  0.40371463     0.36000
N371        N  0.12560789  0.32482719  0.29961734    -0.44200
N372        N  0.03030785  0.17094976  0.42253439    -0.44200
C373        C  0.09779370  0.17437502  0.99390555    -0.00600
C374        C  0.08954003  0.14296369  0.00095926    -0.12500
C375        C  0.10331714  0.13484223  0.02958709     0.01600
C376        C  0.12688303  0.15851032  0.05121749    -0.00700
C377        C  0.13351261  0.18965170  0.04559468    -0.12500
C378        C  0.11901471  0.19764145  0.01781860     0.01500
H379        H  0.07260908  0.12463584  0.98354993     0.14500
H380        H  0.15101087  0.20819326  0.06231050     0.14500
C381        C  0.12780727  0.23020759  0.01336219     0.36100
C382        C  0.09350083  0.10217564  0.03519775     0.36000
N383        N  0.13468717  0.25627693  0.00991678    -0.44200
N384        N  0.08519073  0.07590201  0.03994581    -0.44200
C385        C  0.42581975  0.08575697  0.99664972    -0.00600
C386        C  0.41791773  0.09685028  0.96534723    -0.12500
C387        C  0.43912892  0.11002961  0.93592589     0.01600
C388        C  0.46928981  0.11226164  0.93705283    -0.00700
C389        C  0.47611990  0.09900498  0.96721907    -0.12500
C390        C  0.45496878  0.08592937  0.99659109     0.01500
H391        H  0.39551511  0.09641089  0.96437442     0.14500
H392        H  0.49877974  0.10003343  0.96876485     0.14500
C393        C  0.46426636  0.07323246  0.02648791     0.36100
C394        C  0.42941251  0.12195860  0.90561895     0.36000
N395        N  0.47182717  0.06310746  0.05041096    -0.44200
N396        N  0.42163409  0.13157340  0.88137505    -0.44200
C397        C  0.00986834  0.23659112  0.96832281    -0.00600
C398        C  0.02697772  0.26933006  0.97246783    -0.12500
C399        C  0.50545963  0.27879011  0.98816569     0.01600
C400        C  0.48431600  0.26036717  0.01556750    -0.00700
C401        C  0.47616430  0.22882231  0.01977424    -0.12500
C402        C  0.98030444  0.21929159  0.98519052     0.01500
H403        H  0.04918237  0.28310803  0.95824598     0.14500
H404        H  0.46055102  0.21497265  0.04176367     0.14500
C405        C  0.96116396  0.18585978  0.98173674     0.36100
C406        C  0.51357076  0.31096924  0.98245769     0.36000
N407        N  0.94511129  0.15908610  0.97938237    -0.44200
N408        N  0.51992768  0.33670627  0.97758270    -0.44200
C409        C  0.01893227  0.15128455  0.78248906    -0.00600
C410        C  0.03334277  0.17555652  0.75706474    -0.12500
C411        C  0.52611698  0.17390696  0.71727988     0.01600
C412        C  0.50074989  0.14466284  0.70639235    -0.00700
C413        C  0.48771999  0.11999705  0.73187850    -0.12500
C414        C  0.99539682  0.12143699  0.77089781     0.01500
H415        H  0.05158310  0.19847312  0.76587268     0.14500
H416        H  0.46847683  0.09739691  0.72386296     0.14500
C417        C  0.97962073  0.09592256  0.79648792     0.36100
C418        C  0.54270158  0.19949774  0.69191899     0.36000
N419        N  0.96702543  0.07554378  0.81711062    -0.44200
N420        N  0.55615398  0.22002561  0.67169592    -0.44200
C421        C  0.08501053  0.16670123  0.49084615    -0.00600
C422        C  0.06067378  0.13527415  0.49389208    -0.12500
C423        C  0.03881032  0.12480925  0.52287007     0.01600
C424        C  0.04085319  0.14581415  0.55049321    -0.00700
C425        C  0.06614779  0.17689775  0.54836108    -0.12500
C426        C  0.08787443  0.18740513  0.51919830     0.01500
H427        H  0.05797926  0.11873221  0.47280862     0.14500
H428        H  0.06849658  0.19363582  0.56901927     0.14500
C429        C  0.11282575  0.21961824  0.51935978     0.36100
C430        C  0.01407367  0.09249775  0.52264521     0.36000
N431        N  0.13283302  0.24544228  0.51970393    -0.44200
N432        N  0.99427729  0.06658398  0.52226503    -0.44200
C433        C  0.48749388  0.22048647  0.51838364    -0.00600
C434        C  0.02030526  0.23051138  0.50550633    -0.12500
C435        C  0.03475992  0.25848136  0.48619497     0.01600
C436        C  0.01808668  0.27486581  0.47955229    -0.00700
C437        C  0.98727049  0.26268392  0.49267516    -0.12500
C438        C  0.46896581  0.22288993  0.49057435     0.01500
H439        H  0.03320146  0.21810214  0.51055326     0.14500
H440        H  0.97438043  0.27507873  0.48761647     0.14500
C441        C  0.44004229  0.19628475  0.47846808     0.36100
C442        C  0.06625419  0.26877966  0.47270248     0.36000
N443        N  0.41681383  0.17495901  0.46893831    -0.44200
N444        N  0.09141611  0.27675747  0.46196411    -0.44200
C445        C  0.41515569  0.06547073  0.50151833    -0.00600
C446        C  0.41418486  0.07696383  0.46662374    -0.12500
C447        C  0.40324273  0.05708080  0.43605667     0.01600
C448        C  0.39252487  0.02463579  0.43973227    -0.00700
C449        C  0.39557908  0.01357732  0.47396820    -0.12500
C450        C  0.40668962  0.03334812  0.50444440     0.01500
H451        H  0.42144142  0.10156432  0.46318625     0.14500
H452        H  0.38769741  0.98883187  0.47753960     0.14500
C453        C  0.40798732  0.01932908  0.53849687     0.36100
C454        C  0.40310317  0.07065465  0.40128085     0.36000
N455        N  0.40908735  0.00796433  0.56565977    -0.44200
N456        N  0.40317343  0.08168412  0.37341992    -0.44200
C457        C  0.06294339  0.28702100  0.85606981    -0.00600
C458        C  0.04017944  0.29367685  0.87073392    -0.12500
C459        C  0.04600917  0.32457274  0.87369420     0.01600
C460        C  0.07436365  0.34950982  0.86018459    -0.00700
C461        C  0.09535329  0.34256018  0.84148876    -0.12500
C462        C  0.09008407  0.31168178  0.83973224     0.01500
H463        H  0.01919933  0.27510315  0.88358478     0.14500
H464        H  0.11763280  0.36165253  0.83183809     0.14500
C465        C  0.11383126  0.30634321  0.82316586     0.36100
C466        C  0.02441537  0.33044363  0.89474390     0.36000
N467        N  0.13320229  0.30248601  0.81000412    -0.44200
N468        N  0.00723133  0.33511271  0.91188292    -0.44200
C469        C  0.15533476  0.03204351  0.94338442    -0.00600
C470        C  0.18756460  0.05060732  0.95170698    -0.12500
C471        C  0.19796793  0.07147674  0.98126752     0.01600
C472        C  0.17605771  0.07506951  0.00324606    -0.00700
C473        C  0.14395592  0.05771602  0.99364292    -0.12500
C474        C  0.13351378  0.03630842  0.96456253    -0.02100
H475        H  0.20485778  0.04765402  0.93620290     0.14500
H476        H  0.12656340  0.05993958  0.00975823     0.14500
C477        C  0.10016079  0.01871380  0.95750563     0.36100
C478        C  0.23122308  0.08778395  0.98908340     0.36000
N479        N  0.07342534  0.00451956  0.95184957    -0.44200
N480        N  0.25784808  0.10070633  0.99554154    -0.44200
C481        C  0.27804780  0.98675260  0.01127911    -0.00600
C482        C  0.28110114  0.00087627  0.97738571    -0.12500
C483        C  0.25463174  0.99424227  0.95730236     0.01600
C484        C  0.22465450  0.47780800  0.97379322    -0.00700
C485        C  0.22317656  0.46008706  0.00441763    -0.12500
C486        C  0.24977899  0.46848680  0.02529438     0.01500
H487        H  0.30415197  0.01848809  0.96763654     0.14500
H488        H  0.20101625  0.43992638  0.01246363     0.14500
C489        C  0.24632998  0.45066846  0.05800524     0.36100
C490        C  0.25926408  0.00876992  0.92191488     0.36000
N491        N  0.24344970  0.43634210  0.08418365    -0.44200
N492        N  0.26334120  0.02041314  0.89353546    -0.44200
C493        C  0.07172351  0.41612010  0.99695196    -0.00600
C494        C  0.08332680  0.41363897  0.03109184    -0.12500
C495        C  0.06342038  0.40187200  0.06166442     0.01600
C496        C  0.03096534  0.39191893  0.05858759    -0.00700
C497        C  0.02030486  0.39823729  0.02590798    -0.12500
C498        C  0.04029717  0.41048697  0.99543394     0.01500
H499        H  0.10769201  0.41936660  0.03363474     0.14500
H500        H  0.99566761  0.39152463  0.02322398     0.14500
C501        C  0.02728880  0.41583239  0.96279572     0.36100
C502        C  0.07679091  0.39953419  0.09568153     0.36000
N503        N  0.01684671  0.42032843  0.93677146    -0.44200
N504        N  0.08751360  0.39784373  0.12301869    -0.44200
C505        C  0.16479935  0.11635630  0.44175890    -0.00600
C506        C  0.14237303  0.10136920  0.46944277    -0.12500
C507        C  0.14939897  0.08925255  0.50063633     0.01600
C508        C  0.17962448  0.09204501  0.50485353    -0.00700
C509        C  0.20107824  0.10487675  0.47576830    -0.12500
C510        C  0.19404603  0.11692023  0.44468061     0.01500
H511        H  0.11989106  0.10074997  0.46779156     0.14500
H512        H  0.22403379  0.10659346  0.47776539     0.14500
C513        C  0.21777428  0.13054001  0.41648074     0.36100
C514        C  0.12503973  0.07433020  0.52787604     0.36000
N515        N  0.23678214  0.14154192  0.39391398    -0.44200
N516        N  0.10542011  0.06230869  0.54961251    -0.44200
C517        C  0.29618011  0.05572585  0.63832559    -0.00600
C518        C  0.31807173  0.08166944  0.65832365    -0.12500
C519        C  0.34964303  0.08868142  0.66093289     0.01600
C520        C  0.36003981  0.07051939  0.64188042    -0.00700
C521        C  0.33747944  0.04239029  0.62623242    -0.12500
C522        C  0.30572804  0.03460812  0.62471915     0.01500
H523        H  0.31098919  0.09738185  0.67023401     0.14500
H524        H  0.34523128  0.02829992  0.61135505     0.14500
C525        C  0.28438839  0.00648709  0.60543565     0.36100
C526        C  0.37193578  0.11650480  0.68000858     0.36000
N527        N  0.26730406  0.98382039  0.59019315    -0.44200
N528        N  0.38998075  0.13874824  0.69522818    -0.44200
C529        C  0.14475461  0.47960460  0.78319259    -0.00600
C530        C  0.14148516  0.50552833  0.77303543    -0.12500
C531        C  0.14452010  0.01591750  0.73717678     0.01600
C532        C  0.15769656  0.00370130  0.71213305    -0.00700
C533        C  0.16116783  0.97802037  0.72288288    -0.12500
C534        C  0.15535722  0.46586984  0.75704948     0.01500
H535        H  0.13417081  0.51674369  0.79324941     0.14500
H536        H  0.17019129  0.96754390  0.70371356     0.14500
C537        C  0.15887420  0.43898768  0.76572522     0.36100
C538        C  0.14018198  0.04208868  0.72773673     0.36000
N539        N  0.16179998  0.41755578  0.77277009    -0.44200
N540        N  0.13674274  0.06309835  0.72008254    -0.44200
C541        C  0.12145992  0.46796120  0.55417675    -0.00600
C542        C  0.11902262  0.47914746  0.51990376    -0.12500
C543        C  0.10805957  0.45938578  0.48960143     0.01600
C544        C  0.09941074  0.42720716  0.49279659    -0.00700
C545        C  0.09936904  0.41550681  0.52784437    -0.12500
C546        C  0.11013636  0.43543319  0.55829317     0.01500
H547        H  0.12729541  0.50397404  0.51619455     0.14500
H548        H  0.09166719  0.39081289  0.53144645     0.14500
C549        C  0.10954913  0.42194803  0.59339548     0.36100
C550        C  0.10645885  0.47340401  0.45569340     0.36000
N551        N  0.10890699  0.41117453  0.62162067    -0.44200
N552        N  0.10491406  0.48481424  0.42877275    -0.44200
C553        C  0.27568619  0.48304220  0.47637449    -0.00600
C554        C  0.24392207  0.46409212  0.48630345    -0.12500
C555        C  0.22864529  0.47548668  0.50822738     0.01600
C556        C  0.24069573  0.00631725  0.51850619    -0.00700
C557        C  0.27059313  0.02630558  0.50361425    -0.12500
C558        C  0.28537708  0.01498143  0.48078409     0.01500
H559        H  0.23044170  0.44039739  0.47602219     0.14500
H560        H  0.28304327  0.05101239  0.51039923     0.14500
C561        C  0.31620709  0.03728532  0.46712749     0.36100
C562        C  0.19595949  0.45465998  0.51668657     0.36000
N563        N  0.34074230  0.05565412  0.45627589    -0.44200
N564        N  0.16984680  0.43735704  0.52328446    -0.44200
C565        C  0.41046265  0.33555146  0.00662226    -0.00600
C566        C  0.40796068  0.32066597  0.97310193    -0.12500
C567        C  0.39946320  0.33017690  0.94101187     0.01600
C568        C  0.39296671  0.35531455  0.94147421    -0.00700
C569        C  0.39707832  0.37131894  0.97456495    -0.12500
C570        C  0.40575138  0.36188660  0.00671821     0.01500
H571        H  0.41218592  0.30096491  0.97184853     0.14500
H572        H  0.39210443  0.39053796  0.97587591     0.14500
C573        C  0.40898274  0.37956077  0.03930411     0.36100
C574        C  0.39719438  0.31313302  0.90818882     0.36000
N575        N  0.41163612  0.39395146  0.06524671    -0.44200
N576        N  0.39541864  0.29931960  0.88201861    -0.44200
C577        C  0.29986523  0.27407073  0.98225828    -0.00600
C578        C  0.29133221  0.24407118  0.96929727    -0.12500
C579        C  0.27529700  0.21799339  0.99186750     0.01600
C580        C  0.26914403  0.22248482  0.02822428    -0.00700
C581        C  0.28263725  0.25304169  0.04226745    -0.12500
C582        C  0.29764431  0.27885421  0.01939716     0.01500
H583        H  0.29345113  0.24058732  0.94051878     0.14500
H584        H  0.27982694  0.25683895  0.07074590     0.14500
C585        C  0.30906560  0.30982568  0.03411266     0.36100
C586        C  0.26221593  0.18729391  0.97573318     0.36000
N587        N  0.31830861  0.33464773  0.04593249    -0.44200
N588        N  0.25148470  0.16275333  0.96261987    -0.44200
C589        C  0.21723994  0.26343244  0.87545886    -0.00600
C590        C  0.20191391  0.26519613  0.84398469    -0.12500
C591        C  0.16983116  0.24349652  0.83833016     0.01600
C592        C  0.15292927  0.21979725  0.86430428    -0.00700
C593        C  0.16932100  0.21623921  0.89343958    -0.12500
C594        C  0.20087647  0.23810514  0.89963933     0.01500
H595        H  0.21440006  0.28444574  0.82503351     0.14500
H596        H  0.15630533  0.19872282  0.91419230     0.14500
C597        C  0.21451589  0.23615969  0.93353992     0.36100
C598        C  0.15414089  0.24667912  0.80682039     0.36000
N599        N  0.22457546  0.23446622  0.96130353    -0.44200
N600        N  0.14150307  0.24871243  0.78127448    -0.44200
C601        C  0.20726112  0.40782472  0.86703454    -0.00600
C602        C  0.23782200  0.42908048  0.85394654    -0.12500
C603        C  0.26198536  0.42123093  0.85357314     0.01600
C604        C  0.25565173  0.39155151  0.86609594    -0.00700
C605        C  0.22427961  0.36904362  0.87403032    -0.12500
C606        C  0.20031123  0.37680540  0.87514862     0.01500
H607        H  0.24360991  0.45274395  0.84655950     0.14500
H608        H  0.21896655  0.34579208  0.88284263     0.14500
C609        C  0.16995636  0.35311199  0.88866164     0.36100
C610        C  0.29337546  0.44474420  0.84308433     0.36000
N611        N  0.14594743  0.33407069  0.90013597    -0.44200
N612        N  0.31846421  0.46364713  0.83436753    -0.44200
C613        C  0.36385040  0.46572929  0.05148998    -0.00600
C614        C  0.37488696  0.47630647  0.01605464    -0.12500
C615        C  0.36492216  0.45565838  0.98636893     0.01600
C616        C  0.34347071  0.42322092  0.99167151    -0.00700
C617        C  0.33385689  0.41252547  0.02748654    -0.12500
C618        C  0.34377075  0.43320746  0.05708503     0.01500
H619        H  0.38995958  0.50119272  0.01108336     0.14500
H620        H  0.31767180  0.38792384  0.03244603     0.14500
C621        C  0.33253009  0.42033829  0.09291503     0.36100
C622        C  0.37643223  0.46898023  0.95077444     0.36000
N623        N  0.32353317  0.41002495  0.12162966    -0.44200
N624        N  0.38561710  0.47978755  0.92228582    -0.44200
C625        C  0.36140193  0.38709175  0.55470430    -0.00600
C626        C  0.33004064  0.38080041  0.55192696    -0.12500
C627        C  0.31896382  0.38834148  0.52051102     0.01600
C628        C  0.33952696  0.40316464  0.49078545    -0.00700
C629        C  0.37148388  0.41185337  0.49468298    -0.12500
C630        C  0.38254906  0.40418812  0.52617935     0.01500
H631        H  0.31333029  0.36800050  0.57346975     0.14500
H632        H  0.38793418  0.42445429  0.47283017     0.14500
C633        C  0.41568259  0.41418218  0.52829619     0.36100
C634        C  0.28585518  0.37863520  0.51885771     0.36000
N635        N  0.44231244  0.42249564  0.52999841    -0.44200
N636        N  0.25931933  0.37080696  0.51741309    -0.44200
C637        C  0.23836227  0.25053731  0.46403242    -0.00600
C638        C  0.23460397  0.26730770  0.49267367    -0.12500
C639        C  0.25895438  0.28377738  0.51694830     0.01600
C640        C  0.28729458  0.28324703  0.51234465    -0.00700
C641        C  0.29248249  0.27016851  0.48122145    -0.12500
C642        C  0.26824652  0.25335959  0.45727149     0.01500
H643        H  0.21227170  0.26658402  0.49702483     0.14500
H644        H  0.31482911  0.27078112  0.47732834     0.14500
C645        C  0.27469331  0.23781823  0.42779154     0.36100
C646        C  0.25305346  0.29812729  0.54804028     0.36000
N647        N  0.28002966  0.22550713  0.40421977    -0.44200
N648        N  0.24829678  0.30943334  0.57310796    -0.44200
C649        C  0.23465228  0.14647013  0.64203281    -0.00600
C650        C  0.22519719  0.16597943  0.62476668    -0.12500
C651        C  0.24630004  0.19816868  0.61997928     0.01600
C652        C  0.27760567  0.21133964  0.63267844    -0.00700
C653        C  0.28574008  0.19247501  0.65364102    -0.12500
C654        C  0.26446404  0.16043473  0.65869181     0.01500
H655        H  0.20261789  0.15545171  0.61114497     0.14500
H656        H  0.30939393  0.20236815  0.66432362     0.14500
C657        C  0.27454705  0.14165549  0.67867086     0.36100
C658        C  0.23629603  0.21595662  0.59790366     0.36000
N659        N  0.28246655  0.12668174  0.69516955    -0.44200
N660        N  0.22781568  0.22974535  0.58003527    -0.44200
C661        C  0.34885215  0.35048595  0.78407501    -0.00600
C662        C  0.34427222  0.32090339  0.77377066    -0.12500
C663        C  0.35127145  0.31545963  0.73869829     0.01600
C664        C  0.36365476  0.33998316  0.71304026    -0.00700
C665        C  0.37024769  0.37012659  0.72361676    -0.12500
C666        C  0.36281627  0.37554422  0.75892331     0.01500
H667        H  0.33441253  0.30155601  0.79301769     0.14500
H668        H  0.37922997  0.38890546  0.70363979     0.14500
C669        C  0.36743961  0.40618152  0.76765692     0.36100
C670        C  0.34456750  0.28417795  0.72912892     0.36000
N671        N  0.37096408  0.43070076  0.77461558    -0.44200
N672        N  0.33915215  0.25922864  0.72102281    -0.44200
C673        C  0.41459275  0.26158039  0.63685429    -0.00600
C674        C  0.39121148  0.23020943  0.64166870    -0.12500
C675        C  0.39773869  0.20570321  0.63682383     0.01600
C676        C  0.42911743  0.21232163  0.63106577    -0.00700
C677        C  0.45320461  0.24411509  0.63167881    -0.12500
C678        C  0.44606582  0.26861758  0.63328256     0.01500
H679        H  0.36680916  0.22468504  0.64355160     0.14500
H680        H  0.47747684  0.25007108  0.62708338     0.14500
C681        C  0.47069612  0.30036902  0.62644593     0.36100
C682        C  0.37100861  0.17483718  0.63252507     0.36000
N683        N  0.49025099  0.32584340  0.62066051    -0.44200
N684        N  0.34891945  0.15071281  0.62789953    -0.44200
C685        C  0.42790091  0.33336043  0.50055286    -0.00600
C686        C  0.45609232  0.36212867  0.50249084    -0.12500
C687        C  0.47735073  0.37373231  0.47318327     0.01600
C688        C  0.47108394  0.35614882  0.44077714    -0.00700
C689        C  0.44186082  0.32837894  0.43799341    -0.12500
C690        C  0.42038321  0.31697607  0.46717314     0.01500
H691        H  0.46194742  0.37557548  0.52740618     0.14500
H692        H  0.43625520  0.31454403  0.41339537     0.14500
C693        C  0.39167283  0.28759900  0.46230596     0.36100
C694        C  0.00824107  0.40420387  0.47864900     0.36000
N695        N  0.36872633  0.26405138  0.45814797    -0.44200
N696        N  0.03016121  0.42876693  0.48148631    -0.44200
O697        O  0.33035185  0.74538913  0.60375486    -0.82300
C698        C  0.37023672  0.87047988  0.58101378     0.97100
O699        O  0.34991481  0.85535098  0.60537621    -0.71400
O700        O  0.31424699  0.80996702  0.56222960    -0.75000
Al701      Al  0.32863635  0.81048452  0.60944940     1.49000
C702        C  0.30852207  0.78863563  0.53984637     0.92300
O703        O  0.37976222  0.80134818  0.52816170    -0.81200
O704        O  0.40851589  0.80620257  0.63085554    -0.74800
Al705      Al  0.35558410  0.77507660  0.56738119     1.90100
O706        O  0.41999621  0.83310823  0.56125210    -0.73800
O707        O  0.38931123  0.84732360  0.65254158    -0.73700
O708        O  0.39432527  0.86716688  0.57877435    -0.79300
O709        O  0.33960643  0.81140869  0.65798610    -0.77600
O710        O  0.36144711  0.80711461  0.59435932    -1.13700
O711        O  0.30037159  0.76594358  0.61617574    -0.72900
C712        C  0.30510031  0.74275460  0.61660877     0.97800
C713        C  0.40827123  0.82220965  0.53040399     0.94200
Al714      Al  0.40034236  0.83655164  0.60542481     1.55600
O715        O  0.32008100  0.77084038  0.54324724    -0.77500
C716        C  0.36478885  0.83194023  0.67196202     0.98400
C717        C  0.40409542  0.78098409  0.61574267     0.93300
O718        O  0.39015123  0.77257530  0.58570380    -0.82800
O719        O  0.24855167  0.81261257  0.89938101    -0.82300
C720        C  0.37566042  0.86046679  0.91031513     0.97100
O721        O  0.36109747  0.83856677  0.88761421    -0.71400
O722        O  0.31659483  0.80103535  0.93041045    -0.75000
Al723      Al  0.31577420  0.81549442  0.88387564     1.49000
C724        C  0.29818678  0.79690283  0.95617861     0.92300
O725        O  0.31037029  0.87114535  0.96398061    -0.81200
O726        O  0.30572494  0.89025198  0.85882711    -0.74800
Al727      Al  0.28123947  0.84233790  0.92943190     1.90100
O728        O  0.33583054  0.90890199  0.92518448    -0.73800
O729        O  0.35049175  0.87467613  0.83796062    -0.73700
O730        O  0.37131080  0.88392703  0.91008815    -0.79300
O731        O  0.31560113  0.82525749  0.83456513    -0.77600
O732        O  0.31139331  0.84768459  0.89873291    -1.13700
O733        O  0.27122301  0.78645480  0.87884322    -0.72900
C734        C  0.24686295  0.78892414  0.88382507     0.97800
C735        C  0.32920599  0.89977038  0.95775689     0.94200
Al736      Al  0.33882962  0.88645652  0.88367959     1.55600
O737        O  0.28184700  0.81024972  0.95703317    -0.77500
C738        C  0.33717790  0.84954749  0.81991111     0.98400
C739        C  0.28072390  0.88545731  0.87555838     0.93300
O740        O  0.27415559  0.87314666  0.90696435    -0.82800
O741        O  0.26643522  0.57885917  0.61429532    -0.82300
C742        C  0.13811862  0.99195135  0.58182145     0.97100
O743        O  0.15404936  0.98526664  0.60322863    -0.71400
O744        O  0.20774591  0.50216600  0.56478501    -0.75000
Al745      Al  0.20144144  0.51123301  0.61268154     1.49000
C746        C  0.23143543  0.51976320  0.54577396     0.92300
O747        O  0.21332265  0.57777089  0.53639069    -0.81200
O748        O  0.19736685  0.59187830  0.63797769    -0.74800
Al749      Al  0.23763191  0.57678014  0.57706213     1.90100
O750        O  0.17525867  0.57824694  0.56717556    -0.73800
O751        O  0.15978083  0.53055066  0.65620749    -0.73700
O752        O  0.14395696  0.51861838  0.58179888    -0.79300
O753        O  0.19524144  0.51585431  0.66194519    -0.77600
O754        O  0.20385194  0.54766077  0.60045071    -1.13700
O755        O  0.24495847  0.52829145  0.62344736    -0.72900
C756        C  0.26856786  0.55536536  0.62499766     0.97800
C757        C  0.18955564  0.58168597  0.53730696     0.94200
Al758      Al  0.17161552  0.55412923  0.61039353     1.55600
O759        O  0.24556837  0.54893227  0.55016792    -0.77500
C760        C  0.17294789  0.51860937  0.67510301     0.98400
C761        C  0.22283359  0.61456628  0.62579203     0.93300
O762        O  0.23730279  0.61098972  0.59948661    -0.82800
O763        O  0.15982642  0.90218933  0.88687681    -0.82300
C764        C  0.14467521  0.50619124  0.91322859     0.97100
O765        O  0.16529402  0.50729143  0.89123275    -0.71400
O766        O  0.19392007  0.98378659  0.93137082    -0.75000
Al767      Al  0.17709227  0.97526664  0.88459859     1.49000
C768        C  0.19652721  0.96393791  0.95036515     0.92300
O769        O  0.11790179  0.91845193  0.96498937    -0.81200
O770        O  0.08919167  0.90536541  0.86149357    -0.74800
Al771      Al  0.13873565  0.91191676  0.92430776     1.90100
O772        O  0.08226347  0.92163250  0.93255943    -0.73800
O773        O  0.11905909  0.96704561  0.84349133    -0.73700
O774        O  0.11888246  0.98155683  0.91773941    -0.79300
O775        O  0.16494199  0.97023313  0.83581053    -0.77600
O776        O  0.14041096  0.94366202  0.89929189    -1.13700
O777        O  0.19633309  0.95014154  0.87393306    -0.72900
C778        C  0.18676716  0.92102852  0.87396730     0.97800
C779        C  0.09145510  0.91722041  0.96301831     0.94200
Al780      Al  0.10501033  0.94400859  0.88935557     1.55600
O781        O  0.17684659  0.93529196  0.94866152    -0.77500
C782        C  0.14186172  0.97160601  0.82305069     0.98400
C783        C  0.08737847  0.88050935  0.87475112     0.93300
O784        O  0.10031413  0.88106491  0.90448020    -0.82800
O785        O  0.41865038  0.66006253  0.60200066    -0.82300
C786        C  0.01545470  0.63895948  0.57625312     0.97100
O787        O  0.01786383  0.66044962  0.59716151    -0.71400
O788        O  0.50000023  0.68782178  0.55707843    -0.75000
Al789      Al  0.49087422  0.67331835  0.60510458     1.49000
C790        C  0.48108986  0.69066482  0.53655939     0.92300
O791        O  0.43220878  0.61278194  0.52861611    -0.81200
O792        O  0.41838981  0.58823514  0.63373664    -0.74800
Al793      Al  0.42690663  0.63613306  0.56701972     1.90100
O794        O  0.43319910  0.57744155  0.56384119    -0.73800
O795        O  0.48033545  0.61657918  0.65075134    -0.73700
O796        O  0.49337844  0.61219505  0.57691841    -0.79300
O797        O  0.48566585  0.66328561  0.65486950    -0.77600
O798        O  0.45793452  0.63707447  0.59284392    -1.13700
O799        O  0.46753874  0.69490728  0.61363287    -0.72900
C800        C  0.43859617  0.68678339  0.61388143     0.97800
C801        C  0.43002262  0.58617218  0.53249243     0.94200
Al802      Al  0.45651022  0.60132856  0.60562486     1.55600
O803        O  0.45192077  0.67273578  0.53949355    -0.77500
C804        C  0.48786265  0.64112621  0.66904460     0.98400
C805        C  0.39389142  0.58699961  0.62020280     0.93300
O806        O  0.39481915  0.59952292  0.58986613    -0.82800
O807        O  0.07900877  0.75325341  0.87425326    -0.82300
C808        C  0.49426935  0.62891013  0.91327310     0.97100
O809        O  0.48976951  0.64386816  0.88840329    -0.71400
O810        O  0.00118112  0.69495518  0.92446818    -0.75000
Al811      Al  0.01195339  0.68832312  0.87727443     1.49000
C812        C  0.01844323  0.71863700  0.94332547     0.92300
O813        O  0.07895750  0.70356543  0.95547600    -0.81200
O814        O  0.09471805  0.68388713  0.85762643    -0.74800
Al815      Al  0.07706720  0.72589909  0.91318896     1.90100
O816        O  0.07795037  0.66349366  0.92827155    -0.73800
O817        O  0.03386081  0.64681755  0.83785109    -0.73700
O818        O  0.01912979  0.63219357  0.91214118    -0.79300
O819        O  0.01904710  0.68195166  0.82870512    -0.77600
O820        O  0.04853337  0.69138594  0.89127817    -1.13700
O821        O  0.02830033  0.73175918  0.86550819    -0.72900
C822        C  0.05547704  0.75535123  0.86365164     0.97800
C823        C  0.08285430  0.67988563  0.95637640     0.94200
Al824      Al  0.05551445  0.65912347  0.88415594     1.55600
O825        O  0.04785188  0.73308155  0.93879033    -0.77500
C826        C  0.02410258  0.66073841  0.81697290     0.98400
C827        C  0.11702210  0.70955116  0.86941411     0.93300
O828        O  0.11193837  0.72570871  0.89209626    -0.82800
O829        O  0.12986950  0.73021597  0.37864815    -0.82300
C830        C  0.15917519  0.63641873  0.41336465     0.97100
O831        O  0.13225915  0.62984856  0.40072200    -0.71400
O832        O  0.10622380  0.65587717  0.43717486    -0.75000
Al833      Al  0.11571314  0.65811580  0.38719547     1.49000
C834        C  0.10634516  0.67659493  0.45716441     0.92300
O835        O  0.18346113  0.72651815  0.44753702    -0.81200
O836        O  0.19766482  0.72810499  0.34077758    -0.74800
Al837      Al  0.15605830  0.72660431  0.41207753     1.90100
O838        O  0.21491128  0.72196426  0.40859943    -0.73800
O839        O  0.16868783  0.66541851  0.33439421    -0.73700
O840        O  0.18305736  0.66205805  0.40534407    -0.79300
O841        O  0.11958129  0.65447078  0.33552012    -0.77600
O842        O  0.15294791  0.69279910  0.39063074    -1.13700
O843        O  0.09236455  0.68092138  0.37635611    -0.72900
C844        C  0.10187524  0.71015825  0.37223499     0.97800
C845        C  0.21033981  0.73100389  0.43881125     0.94200
Al846      Al  0.18782792  0.69389928  0.37353124     1.55600
O847        O  0.12216173  0.70504003  0.44754080    -0.77500
C848        C  0.14230661  0.65431135  0.31923130     0.98400
C849        C  0.20410292  0.75461127  0.35345481     0.93300
O850        O  0.19065199  0.75640549  0.38218482    -0.82800
O851        O  0.22904796  0.61163908  0.12107122    -0.82300
C852        C  0.14208959  0.64778343  0.07368281     0.97100
O853        O  0.13378065  0.62118116  0.08820350    -0.71400
O854        O  0.16034313  0.59391591  0.05328723    -0.75000
Al855      Al  0.16012723  0.60279994  0.10329012     1.49000
C856        C  0.18165154  0.59194314  0.03609873     0.92300
O857        O  0.23697825  0.66631760  0.04531205    -0.81200
O858        O  0.23151482  0.68448349  0.14885269    -0.74800
Al859      Al  0.23088277  0.63842624  0.08384709     1.90100
O860        O  0.22924462  0.69889825  0.07862104    -0.73800
O861        O  0.16884260  0.65748524  0.15234714    -0.73700
O862        O  0.16907664  0.67030340  0.07976655    -0.79300
O863        O  0.15553806  0.60780524  0.15448715    -0.77600
O864        O  0.19670025  0.63856264  0.10044766    -1.13700
O865        O  0.17911223  0.57654019  0.11627886    -0.72900
C866        C  0.20723639  0.58391915  0.12458453     0.97800
C867        C  0.24118643  0.69340808  0.05111459     0.94200
Al868      Al  0.19909363  0.67452287  0.11381772     1.55600
O869        O  0.20922944  0.60462180  0.04903643    -0.77500
C870        C  0.15681989  0.63169379  0.16921065     0.98400
C871        C  0.25807262  0.68806618  0.13956425     0.93300
O872        O  0.26026000  0.67229168  0.11368112    -0.82800
O873        O  0.28246495  0.87973685  0.39324052    -0.82300
C874        C  0.37956786  0.50016579  0.41183992     0.97100
O875        O  0.37207573  0.97431602  0.41145936    -0.71400
O876        O  0.34250392  0.91430256  0.42497890    -0.75000
Al877      Al  0.34588511  0.93881094  0.38199581     1.49000
C878        C  0.32845645  0.91173119  0.45490098     0.92300
O879        O  0.26946418  0.94042650  0.44130888    -0.81200
O880        O  0.26801027  0.95888543  0.36797876    -0.74800
Al881      Al  0.27983116  0.91355024  0.41502660     1.90100
O882        O  0.30612445  0.98752461  0.42620755    -0.73800
O883        O  0.31954898  0.97368100  0.32954890    -0.73700
O884        O  0.36314165  0.50627823  0.39050275    -0.79300
O885        O  0.35791321  0.96311357  0.33685679    -0.77600
O886        O  0.31264095  0.94352323  0.39162330    -1.13700
O887        O  0.32088999  0.90154462  0.35297096    -0.72900
C888        C  0.29582118  0.87795437  0.36460223     0.97800
C889        C  0.28306968  0.96964498  0.44576222     0.94200
Al890      Al  0.31284790  0.97863802  0.37878501     1.55600
O891        O  0.30459326  0.91528739  0.45558919    -0.77500
C892        C  0.34259944  0.97194577  0.31693520     0.98400
C893        C  0.24610550  0.93057010  0.36684407     0.93300
O894        O  0.25144081  0.90913674  0.37748449    -0.82800
O895        O  0.38086051  0.60475578  0.09682224    -0.82300
C896        C  0.36956033  0.98809072  0.07775151     0.97100
O897        O  0.39098968  0.51719873  0.07811328    -0.71400
O898        O  0.41593777  0.57750341  0.06657039    -0.75000
Al899      Al  0.39545078  0.55138657  0.10807491     1.49000
C900        C  0.40549622  0.57908504  0.03579594     0.92300
O901        O  0.31624442  0.53926495  0.04490370    -0.81200
O902        O  0.29382699  0.51789101  0.11785150    -0.74800
Al903      Al  0.34932454  0.56932061  0.07282429     1.90100
O904        O  0.31082956  0.49384077  0.06155771    -0.73800
O905        O  0.33442479  0.51220231  0.15872366    -0.73700
O906        O  0.34862447  0.98127793  0.10178934    -0.79300
O907        O  0.38422791  0.52632551  0.15293516    -0.77600
O908        O  0.35625030  0.54219088  0.09708615    -1.13700
O909        O  0.40288256  0.58770037  0.13657443    -0.72900
C910        C  0.39779492  0.60914289  0.12440047     0.97800
C911        C  0.30390133  0.51007513  0.04115789     0.94200
Al912      Al  0.32432330  0.50482563  0.10954941     1.55600
O913        O  0.37714707  0.57282688  0.03322426    -0.77500
C914        C  0.35894429  0.51374539  0.17155169     0.98400
C915        C  0.29528704  0.54420263  0.11916040     0.93300
O916        O  0.31990928  0.56862360  0.10858222    -0.82800
O917        O  0.38335141  0.77123509  0.09885232    -0.82300
C918        C  0.00540400  0.86546119  0.08536006     0.97100
O919        O  0.47714252  0.86258770  0.08317210    -0.71400
O920        O  0.41656228  0.83201918  0.07064460    -0.75000
Al921      Al  0.44163628  0.83420648  0.11260609     1.49000
C922        C  0.41514911  0.82045787  0.03943335     0.92300
O923        O  0.44510642  0.76193171  0.04774872    -0.81200
O924        O  0.46511832  0.75934396  0.11911772    -0.74800
Al925      Al  0.41778142  0.77045357  0.07565354     1.90100
O926        O  0.49199945  0.79943635  0.06165374    -0.73800
O927        O  0.47903875  0.80752888  0.16040588    -0.73700
O928        O  0.01021968  0.84672657  0.10432133    -0.79300
O929        O  0.46659923  0.84466591  0.15730454    -0.77600
O930        O  0.44742818  0.80244672  0.09998784    -1.13700
O931        O  0.40453170  0.80685477  0.14165924    -0.72900
C932        C  0.38130615  0.78212690  0.12914028     0.97800
C933        C  0.47435557  0.77634579  0.04241279     0.94200
Al934      Al  0.48335896  0.80339660  0.11046349     1.55600
O935        O  0.41908897  0.79694146  0.03654161    -0.77500
C936        C  0.47839843  0.83048990  0.17456958     0.98400
C937        C  0.43719162  0.73704985  0.12174047     0.93300
O938        O  0.41440931  0.74078558  0.11177107    -0.82800
O939        O  0.11393331  0.88408286  0.40508625    -0.82300
C940        C  0.49755958  0.86172417  0.41101077     0.97100
O941        O  0.02123413  0.88666051  0.41554826    -0.71400
O942        O  0.08178929  0.91506391  0.42981856    -0.75000
Al943      Al  0.05775178  0.89284909  0.38790024     1.49000
C944        C  0.08373927  0.90566715  0.46119126     0.92300
O945        O  0.04872391  0.81709807  0.45563513    -0.81200
O946        O  0.03106787  0.79298347  0.38448402    -0.74800
Al947      Al  0.07837995  0.85097355  0.42784632     1.90100
O948        O  0.00268166  0.80930106  0.43756562    -0.73800
O949        O  0.02294361  0.83001131  0.33929676    -0.73700
O950        O  0.49295843  0.84053791  0.38845538    -0.79300
O951        O  0.03479561  0.87932976  0.34233110    -0.77600
O952        O  0.05053044  0.85497679  0.40129998    -1.13700
O953        O  0.09589408  0.90150694  0.36116461    -0.72900
C954        C  0.11791712  0.89819065  0.37516813     0.97800
C955        C  0.01930078  0.80389013  0.45919147     0.94200
Al956      Al  0.01451387  0.82127228  0.38902364     1.55600
O957        O  0.07791089  0.87773173  0.46543395    -0.77500
C958        C  0.02567833  0.85433525  0.32429139     0.98400
C959        C  0.05872719  0.79719422  0.38342758     0.93300
O960        O  0.08168265  0.82302394  0.39356085    -0.82800
C961        C  0.01679834  0.85238864  0.28565644    -0.00600
C962        C  0.02524204  0.83519124  0.26244917    -0.12500
C963        C  0.01429049  0.82875363  0.22683830     0.01600
C964        C  0.49331033  0.84126093  0.21079001    -0.00700
C965        C  0.47910232  0.85067104  0.23755149    -0.12500
C966        C  0.49117657  0.85738771  0.27312212     0.01500
H967        H  0.04042921  0.82648844  0.27237734     0.14500
H968        H  0.45771389  0.85122394  0.23121340     0.14500
C969        C  0.47410021  0.86383257  0.30077547     0.36100
C970        C  0.02571986  0.81223531  0.20444840     0.36000
N971        N  0.46043264  0.86876054  0.32319851    -0.44200
N972        N  0.03505783  0.79911785  0.18663556    -0.44200
C973        C  0.43128086  0.70559751  0.13378304    -0.00600
C974        C  0.40165403  0.68455688  0.14805842    -0.12500
C975        C  0.39184189  0.65263182  0.15087365     0.01600
C976        C  0.41187908  0.64095113  0.13999453    -0.00700
C977        C  0.44294273  0.66246900  0.13012155    -0.12500
C978        C  0.45277442  0.69457355  0.12660506     0.01500
H979        H  0.38509647  0.69262289  0.15429313     0.14500
H980        H  0.45833896  0.65380025  0.12078563     0.14500
C981        C  0.48362426  0.71464747  0.11127695     0.36100
C982        C  0.35955717  0.63198737  0.16053188     0.36000
N983        N  0.50830249  0.73060112  0.09880270    -0.44200
N984        N  0.33337859  0.61614229  0.16793907    -0.44200
C985        C  0.14888393  0.90826162  0.35757827    -0.00600
C986        C  0.15693798  0.88463641  0.35409952    -0.12500
C987        C  0.18821539  0.89120343  0.35505925     0.01600
C988        C  0.21308952  0.92265176  0.35704690    -0.00700
C989        C  0.20500177  0.94667926  0.35593428    -0.12500
C990        C  0.17322875  0.93968267  0.35704875     0.01500
H991        H  0.13840175  0.86038752  0.35577176     0.14500
H992        H  0.22339117  0.97095249  0.35766126     0.14500
C993        C  0.16620221  0.96480721  0.36147414     0.36100
C994        C  0.19302783  0.86464712  0.35951826     0.36000
N995        N  0.16042630  0.98486876  0.36507596    -0.44200
N996        N  0.19613789  0.84307312  0.36467116    -0.44200
C997        C  0.35683811  0.49918245  0.20772324    -0.00600
C998        C  0.38384775  0.50880067  0.22921495    -0.12500
C999        C  0.38125418  0.49762358  0.26508728     0.01600
C1000       C  0.35091713  0.98041384  0.27830673    -0.00700
C1001       C  0.32781432  0.96333349  0.25258935    -0.12500
C1002       C  0.33089890  0.97370043  0.21664800     0.01500
H1003       H  0.40673006  0.52585425  0.21856937     0.14500
H1004       H  0.30654069  0.94234088  0.26106196     0.14500
C1005       C  0.30554356  0.95481533  0.19209777     0.36100
C1006       C  0.40922883  0.50853334  0.28680212     0.36000
N1007       N  0.28499381  0.93961158  0.17276947    -0.44200
N1008       N  0.43155712  0.51689578  0.30432887    -0.44200
C1009       C  0.35097071  0.76364387  0.14882643    -0.00600
C1010       C  0.34400883  0.73373418  0.16129613    -0.12500
C1011       C  0.31277460  0.70913812  0.16383562     0.01600
C1012       C  0.28781378  0.71419152  0.15395066    -0.00700
C1013       C  0.29450301  0.74501871  0.14642344    -0.12500
C1014       C  0.32582135  0.76963281  0.14350873     0.01500
H1015       H  0.36307073  0.72872818  0.16539458     0.14500
H1016       H  0.27550203  0.74921374  0.13859091     0.14500
C1017       C  0.33157887  0.79991673  0.13104077     0.36100
C1018       C  0.30664721  0.67819453  0.17399429     0.36000
N1019       N  0.33609517  0.82421310  0.12118871    -0.44200
N1020       N  0.30099830  0.65320952  0.18239738    -0.44200
C1021       C  0.26619406  0.54546806  0.12752346    -0.00600
C1022       C  0.24331687  0.53594729  0.10032350    -0.12500
C1023       C  0.21846476  0.54246268  0.10300319     0.01600
C1024       C  0.21743275  0.56059574  0.13216703    -0.00700
C1025       C  0.23765186  0.56598250  0.16180659    -0.12500
C1026       C  0.26109772  0.55721226  0.16023984     0.01500
H1027       H  0.24578868  0.52483294  0.07600099     0.14500
H1028       H  0.23653729  0.57893821  0.18508001     0.14500
C1029       C  0.27896612  0.55971876  0.19239598     0.36100
C1030       C  0.19601069  0.53263881  0.07382991     0.36000
N1031       N  0.29297948  0.56133511  0.21836878    -0.44200
N1032       N  0.17781885  0.52388879  0.05057480    -0.44200
C1033       C  0.28028624  0.84717345  0.34597077    -0.00600
C1034       C  0.25273753  0.83931201  0.32621090    -0.12500
C1035       C  0.22846181  0.80792582  0.32339585     0.01600
C1036       C  0.23174823  0.78391003  0.34023951    -0.00700
C1037       C  0.26101550  0.79139124  0.35530342    -0.12500
C1038       C  0.28507635  0.82268040  0.35854909     0.01500
H1039       H  0.24868574  0.85790487  0.31645456     0.14500
H1040       H  0.26382364  0.77308593  0.36834467     0.14500
C1041       C  0.31290073  0.82924788  0.37879663     0.36100
C1042       C  0.19942530  0.80105351  0.30573829     0.36000
N1043       N  0.33516552  0.83438387  0.39504396    -0.44200
N1044       N  0.17616914  0.79559617  0.29155864    -0.44200
C1045       C  0.13921647  0.64208323  0.28157159    -0.00600
C1046       C  0.12666960  0.65264510  0.25425555    -0.12500
C1047       C  0.12986888  0.64716016  0.21736671     0.01600
C1048       C  0.14588480  0.63086235  0.20724809    -0.00700
C1049       C  0.15567097  0.61772024  0.23469309    -0.12500
C1050       C  0.15243334  0.62315800  0.27155889     0.01500
H1051       H  0.11591171  0.66665997  0.26157110     0.14500
H1052       H  0.16751355  0.60471949  0.22735707     0.14500
C1053       C  0.16301444  0.60922759  0.29877337     0.36100
C1054       C  0.11673222  0.65863719  0.19020634     0.36000
N1055       N  0.17117315  0.59787980  0.32071285    -0.44200
N1056       N  0.10603865  0.66749114  0.16824840    -0.44200
C1057       C  0.06369481  0.77061241  0.37313294    -0.00600
C1058       C  0.04877589  0.74277471  0.39374864    -0.12500
C1059       C  0.05726102  0.71933002  0.38977998     0.01600
C1060       C  0.08092211  0.72344945  0.36453852    -0.00700
C1061       C  0.09281285  0.74955761  0.34093120    -0.12500
C1062       C  0.08447881  0.77302100  0.34508325     0.01500
H1063       H  0.03216450  0.74037526  0.41491030     0.14500
H1064       H  0.11095412  0.75308550  0.32134334     0.14500
C1065       C  0.09777554  0.79948016  0.32052427     0.36100
C1066       C  0.04405884  0.69318733  0.41483493     0.36000
N1067       N  0.10808892  0.82040648  0.30040246    -0.44200
N1068       N  0.03334116  0.67228375  0.43498718    -0.44200
C1069       C  0.09438311  0.67141602  0.98997140    -0.00600
C1070       C  0.08384165  0.63963922  0.99839981    -0.12500
C1071       C  0.09693633  0.63083383  0.02731752     0.01600
C1072       C  0.12171637  0.65409546  0.04816405    -0.00700
C1073       C  0.13080556  0.68573181  0.04075392    -0.12500
C1074       C  0.11767193  0.69446370  0.01223919     0.01500
H1075       H  0.06566235  0.62155877  0.98185000     0.14500
H1076       H  0.14950180  0.70417812  0.05640149     0.14500
C1077       C  0.13056075  0.72745957  0.00469808     0.36100
C1078       C  0.08513706  0.59790380  0.03403857     0.36000
N1079       N  0.14105248  0.75391627  0.99860903    -0.44200
N1080       N  0.07533515  0.57144198  0.03948690    -0.44200
C1081       C  0.42703378  0.58869850  0.00299638    -0.00600
C1082       C  0.41836962  0.59769490  0.97059869    -0.12500
C1083       C  0.43863425  0.60839346  0.94005265     0.01600
C1084       C  0.46896388  0.61105474  0.94138808    -0.00700
C1085       C  0.47677620  0.60028338  0.97300261    -0.12500
C1086       C  0.45629059  0.58896020  0.00319960     0.01500
H1087       H  0.39578755  0.59684140  0.96918784     0.14500
H1088       H  0.49952513  0.60151738  0.97470468     0.14500
C1089       C  0.46613640  0.57746290  0.03379890     0.36100
C1090       C  0.42742723  0.61644817  0.90776248     0.36000
N1091       N  0.47403470  0.56811522  0.05818798    -0.44200
N1092       N  0.41840636  0.62283229  0.88184200    -0.44200
C1093       C  0.00493900  0.73179086  0.96923074    -0.00600
C1094       C  0.02594781  0.76013003  0.98614930    -0.12500
C1095       C  0.51957614  0.77147145  0.01646498     0.01600
C1096       C  0.48763485  0.76368492  0.01588829    -0.00700
C1097       C  0.46673376  0.73992475  0.99262474    -0.12500
C1098       C  0.97229602  0.71885998  0.97544584     0.01500
H1099       H  0.05108996  0.77078759  0.98140433     0.14500
H1100       H  0.44215895  0.73382021  0.99176517     0.14500
C1101       C  0.94910187  0.68996792  0.95895286     0.36100
C1102       C  0.54281468  0.79599606  0.03899264     0.36000
N1103       N  0.93034366  0.66687121  0.94582350    -0.44200
N1104       N  0.56158246  0.81566009  0.05686372    -0.44200
C1105       C  0.01827399  0.65276717  0.77814512    -0.00600
C1106       C  0.03253865  0.67741087  0.75309734    -0.12500
C1107       C  0.52172773  0.67527760  0.72040079     0.01600
C1108       C  0.50054358  0.64508423  0.70674983    -0.00700
C1109       C  0.49096245  0.61904312  0.73006023    -0.12500
C1110       C  0.99576702  0.62271759  0.76592387     0.01500
H1111       H  0.05038988  0.70037409  0.76226539     0.14500
H1112       H  0.47464919  0.59578935  0.72020002     0.14500
C1113       C  0.98098535  0.59645425  0.79067125     0.36100
C1114       C  0.53315158  0.70344323  0.69871001     0.36000
N1115       N  0.96917078  0.57530044  0.81039956    -0.44200
N1116       N  0.54212365  0.72619148  0.68174096    -0.44200
C1117       C  0.08606168  0.66650668  0.49075356    -0.00600
C1118       C  0.06083808  0.63550124  0.49274181    -0.12500
C1119       C  0.03883956  0.62520779  0.52141148     0.01600
C1120       C  0.04163011  0.64604038  0.54959114    -0.00700
C1121       C  0.06821256  0.67641473  0.54893421    -0.12500
C1122       C  0.09018046  0.68670484  0.52008518     0.01500
H1123       H  0.05740143  0.61932822  0.47089513     0.14500
H1124       H  0.07133539  0.69280966  0.57038258     0.14500
C1125       C  0.11672012  0.71806070  0.52147376     0.36100
C1126       C  0.01303345  0.59343273  0.52004222     0.36000
N1127       N  0.13806830  0.74315197  0.52270254    -0.44200
N1128       N  0.99238974  0.56795181  0.51882228    -0.44200
C1129       C  0.49277751  0.71815321  0.51301458    -0.00600
C1130       C  0.01200741  0.74759006  0.53114124    -0.12500
C1131       C  0.02094050  0.77643777  0.51516890     0.01600
C1132       C  0.00441760  0.77792217  0.48468205    -0.00700
C1133       C  0.97745312  0.75099688  0.47278314    -0.12500
C1134       C  0.47746119  0.71811608  0.48064851     0.01500
H1135       H  0.02482601  0.74659507  0.55466861     0.14500
H1136       H  0.96485934  0.75201921  0.44904673     0.14500
C1137       C  0.45336489  0.68938637  0.46472894     0.36100
C1138       C  0.04720274  0.80410780  0.53031344     0.36000
N1139       N  0.43417092  0.66631286  0.45198688    -0.44200
N1140       N  0.06816245  0.82627706  0.54247700    -0.44200
C1141       C  0.42244402  0.56470583  0.50045207    -0.00600
C1142       C  0.42326106  0.57637583  0.46513981    -0.12500
C1143       C  0.41199501  0.55627041  0.43494312     0.01600
C1144       C  0.39976769  0.52367470  0.43952508    -0.00700
C1145       C  0.40194727  0.51251993  0.47399259    -0.12500
C1146       C  0.41293447  0.53242142  0.50420586     0.01500
H1147       H  0.43152769  0.60114483  0.46120803     0.14500
H1148       H  0.39290097  0.48760584  0.47804863     0.14500
C1149       C  0.41235261  0.51828517  0.53887892     0.36100
C1150       C  0.41268674  0.56962212  0.39971608     0.36000
N1151       N  0.41181802  0.50676100  0.56655353    -0.44200
N1152       N  0.41336045  0.58032619  0.37143653    -0.44200
C1153       C  0.05862235  0.78648123  0.85464023    -0.00600
C1154       C  0.03733001  0.79422130  0.87127213    -0.12500
C1155       C  0.04371730  0.82541334  0.87298874     0.01600
C1156       C  0.07135826  0.84956224  0.85694113    -0.00700
C1157       C  0.09039979  0.84126203  0.83618329    -0.12500
C1158       C  0.08437299  0.81006597  0.83513684     0.01500
H1159       H  0.01727860  0.77638175  0.88626834     0.14500
H1160       H  0.11206225  0.85964018  0.82428755     0.14500
C1161       C  0.10577781  0.80314263  0.81543820     0.36100
C1162       C  0.02387577  0.83267104  0.89553742     0.36000
N1163       N  0.12303293  0.79776728  0.79951893    -0.44200
N1164       N  0.00815482  0.83856717  0.91379729    -0.44200
C1165       C  0.15358033  0.53194870  0.94042313    -0.00600
C1166       C  0.18574467  0.55143082  0.94830383    -0.12500
C1167       C  0.19567590  0.57137616  0.97864807     0.01600
C1168       C  0.17325340  0.57323914  0.00155888    -0.00700
C1169       C  0.14120249  0.55511859  0.99235671    -0.12500
C1170       C  0.13123995  0.53436807  0.96283346    -0.02100
H1171       H  0.20338919  0.54970473  0.93201461     0.14500
H1172       H  0.12344661  0.55599355  0.00932733     0.14500
C1173       C  0.09778506  0.51503497  0.95738779     0.36100
C1174       C  0.22894234  0.58820154  0.98637814     0.36000
N1175       N  0.07092782  0.49943421  0.95346738    -0.44200
N1176       N  0.25561207  0.60134643  0.99259712    -0.44200
C1177       C  0.27839524  0.49513778  0.01533848    -0.00600
C1178       C  0.28026622  0.51192199  0.98379091    -0.12500
C1179       C  0.25376006  0.50350626  0.96284160     0.01600
C1180       C  0.22460111  0.97323837  0.97161996    -0.00700
C1181       C  0.22171946  0.95727512  0.00422850    -0.12500
C1182       C  0.24829239  0.96372714  0.02416101     0.01500
H1183       H  0.30236555  0.53240912  0.97623155     0.14500
H1184       H  0.19863397  0.94016269  0.01439688     0.14500
C1185       C  0.24405436  0.94814568  0.05880490     0.36100
C1186       C  0.25760883  0.52131947  0.93001245     0.36000
N1187       N  0.24054017  0.93551227  0.08646027    -0.44200
N1188       N  0.26093888  0.53565007  0.90371455    -0.44200
C1189       C  0.07047794  0.90910479  0.99604455    -0.00600
C1190       C  0.08173478  0.90598135  0.03016113    -0.12500
C1191       C  0.06179081  0.89478393  0.06086028     0.01600
C1192       C  0.02958540  0.88592634  0.05791017    -0.00700
C1193       C  0.01904515  0.89164810  0.02483046    -0.12500
C1194       C  0.03890435  0.90307577  0.99424296     0.01500
H1195       H  0.10604526  0.91154628  0.03278984     0.14500
H1196       H  0.99449012  0.88523974  0.02203158     0.14500
C1197       C  0.02533512  0.90686884  0.96113858     0.36100
C1198       C  0.07500708  0.89262720  0.09507016     0.36000
N1199       N  0.01426210  0.90984143  0.93472726    -0.44200
N1200       N  0.08568109  0.89119345  0.12255736    -0.44200
C1201       C  0.16363844  0.61589221  0.44044186    -0.00600
C1202       C  0.14192258  0.60196243  0.46911841    -0.12500
C1203       C  0.14923194  0.58983679  0.50023733     0.01600
C1204       C  0.17902112  0.59138378  0.50341635    -0.00700
C1205       C  0.19970586  0.60330557  0.47351253    -0.12500
C1206       C  0.19247403  0.61550941  0.44262353     0.01500
H1207       H  0.11981671  0.60216882  0.46824969     0.14500
H1208       H  0.22232898  0.60420434  0.47468154     0.14500
C1209       C  0.21565454  0.62821311  0.41379820     0.36100
C1210       C  0.12564393  0.57627107  0.52852540     0.36000
N1211       N  0.23439541  0.63839291  0.39087067    -0.44200
N1212       N  0.10663997  0.56535808  0.55110948    -0.44200
C1213       C  0.29958381  0.55860970  0.63546631    -0.00600
C1214       C  0.32233215  0.58580278  0.65281872    -0.12500
C1215       C  0.35366165  0.59223527  0.65558131     0.01600
C1216       C  0.36308853  0.57237344  0.63874678    -0.00700
C1217       C  0.33986748  0.54347329  0.62547895    -0.12500
C1218       C  0.30822682  0.53609023  0.62443161     0.01500
H1219       H  0.31608767  0.60278924  0.66263226     0.14500
H1220       H  0.34688956  0.52804697  0.61237081     0.14500
C1221       C  0.28592802  0.50648951  0.60852625     0.36100
C1222       C  0.37662752  0.62082908  0.67278374     0.36000
N1223       N  0.26803471  0.48263417  0.59610397    -0.44200
N1224       N  0.39519908  0.64353734  0.68678532    -0.44200
C1225       C  0.14285833  0.97950540  0.78398672    -0.00600
C1226       C  0.13721216  0.00374741  0.77287024    -0.12500
C1227       C  0.15003903  0.51864938  0.73786064     0.01600
C1228       C  0.16145792  0.50532401  0.71207318    -0.00700
C1229       C  0.16329261  0.47855705  0.72202262    -0.12500
C1230       C  0.15389125  0.96592503  0.75816582     0.01500
H1231       H  0.12880751  0.01436868  0.79259281     0.14500
H1232       H  0.17157902  0.46771347  0.70242451     0.14500
C1233       C  0.15822019  0.93960588  0.76735050     0.36100
C1234       C  0.14951908  0.54720732  0.72995850     0.36000
N1235       N  0.16160969  0.91852401  0.77481202    -0.44200
N1236       N  0.14945907  0.57030284  0.72365583    -0.44200
C1237       C  0.11798584  0.96872280  0.55382443    -0.00600
C1238       C  0.11568001  0.98005873  0.51951525    -0.12500
C1239       C  0.10395196  0.96016795  0.48931042     0.01600
C1240       C  0.09374449  0.92768681  0.49294508    -0.00700
C1241       C  0.09384339  0.91607039  0.52796121    -0.12500
C1242       C  0.10579590  0.93608409  0.55808006     0.01500
H1243       H  0.12492290  0.00502677  0.51562848     0.14500
H1244       H  0.08532259  0.89125293  0.53181732     0.14500
C1245       C  0.10560788  0.92241411  0.59292643     0.36100
C1246       C  0.10402216  0.97439284  0.45486489     0.36000
N1247       N  0.10532148  0.91127750  0.62078914    -0.44200
N1248       N  0.10416314  0.98601037  0.42739291    -0.44200
C1249       C  0.27005573  0.98280164  0.47209673    -0.00600
C1250       C  0.23996732  0.96283617  0.48656704    -0.12500
C1251       C  0.22517152  0.97419265  0.50949753     0.01600
C1252       C  0.24522904  0.50656776  0.52071566    -0.00700
C1253       C  0.27729430  0.52518498  0.51183572    -0.12500
C1254       C  0.29263441  0.51371338  0.49006031     0.01500
H1255       H  0.22758328  0.93816569  0.47961619     0.14500
H1256       H  0.29077074  0.54875763  0.52247761     0.14500
C1257       C  0.32566476  0.53400423  0.48278604     0.36100
C1258       C  0.19429860  0.95206838  0.52325435     0.36000
N1259       N  0.35211095  0.55074308  0.47724964    -0.44200
N1260       N  0.16964893  0.93406178  0.53423225    -0.44200
C1261       C  0.40862844  0.83421288  0.00605232    -0.00600
C1262       C  0.41302296  0.82474916  0.97129843    -0.12500
C1263       C  0.40526028  0.83523709  0.93929580     0.01600
C1264       C  0.39274321  0.85573345  0.94129441    -0.00700
C1265       C  0.39061091  0.86706444  0.97569299    -0.12500
C1266       C  0.39821021  0.85657350  0.00770775     0.01500
H1267       H  0.42208152  0.80860483  0.96900096     0.14500
H1268       H  0.38090544  0.88268530  0.97794849     0.14500
C1269       C  0.39338156  0.86818084  0.04178047     0.36100
C1270       C  0.41031118  0.82458474  0.90466875     0.36000
N1271       N  0.38943087  0.87762188  0.06895241    -0.44200
N1272       N  0.41446715  0.81627048  0.87681039    -0.44200
C1273       C  0.29252600  0.77308220  0.98326753    -0.00600
C1274       C  0.28732485  0.74389384  0.97075434    -0.12500
C1275       C  0.27133344  0.71716359  0.99245090     0.01600
C1276       C  0.26139408  0.72010274  0.02758802    -0.00700
C1277       C  0.27051120  0.75011190  0.04131746    -0.12500
C1278       C  0.28538213  0.77639878  0.01933833     0.01500
H1279       H  0.29286615  0.74140559  0.94278026     0.14500
H1280       H  0.26460043  0.75311106  0.06892826     0.14500
C1281       C  0.29124449  0.80602662  0.03401792     0.36100
C1282       C  0.26350755  0.68726532  0.97674766     0.36000
N1283       N  0.29542149  0.82937380  0.04648616    -0.44200
N1284       N  0.25734111  0.66349932  0.96366950    -0.44200
C1285       C  0.21536006  0.76275505  0.87420516    -0.00600
C1286       C  0.20066071  0.76381593  0.84184845    -0.12500
C1287       C  0.16837474  0.74281756  0.83616942     0.01600
C1288       C  0.15063724  0.72002231  0.86278099    -0.00700
C1289       C  0.16632961  0.71709534  0.89310500    -0.12500
C1290       C  0.19794245  0.73869820  0.89961813     0.01500
H1291       H  0.21381875  0.78227698  0.82218655     0.14500
H1292       H  0.15269075  0.70045247  0.91439694     0.14500
C1293       C  0.21029647  0.73812307  0.93498547     0.36100
C1294       C  0.15353194  0.74617800  0.80399271     0.36000
N1295       N  0.21901285  0.73741083  0.96396038    -0.44200
N1296       N  0.14185234  0.74871084  0.77786125    -0.44200
C1297       C  0.20902503  0.90974668  0.86254782    -0.00600
C1298       C  0.24038114  0.93206298  0.85305601    -0.12500
C1299       C  0.26449418  0.92415233  0.85254528     0.01600
C1300       C  0.25727605  0.89324790  0.86043456    -0.00700
C1301       C  0.22552035  0.87025684  0.86486705    -0.12500
C1302       C  0.20161697  0.87811663  0.86681717     0.01500
H1303       H  0.24674439  0.95640336  0.84917902     0.14500
H1304       H  0.21974907  0.84632368  0.87091221     0.14500
C1305       C  0.17071623  0.85362374  0.87771055     0.36100
C1306       C  0.29670590  0.94865183  0.84788882     0.36000
N1307       N  0.14625806  0.83402073  0.88733378    -0.44200
N1308       N  0.32256892  0.96827228  0.84423804    -0.44200
C1309       C  0.36462747  0.96455249  0.04901265    -0.00600
C1310       C  0.37558977  0.97528494  0.01354243    -0.12500
C1311       C  0.36509448  0.95486777  0.98359476     0.01600
C1312       C  0.34297220  0.92258723  0.98862043    -0.00700
C1313       C  0.33353179  0.91173193  0.02439463    -0.12500
C1314       C  0.34407820  0.93208694  0.05425523     0.01500
H1315       H  0.39110653  0.00012203  0.00878727     0.14500
H1316       H  0.31705825  0.88724090  0.02914972     0.14500
C1317       C  0.33292506  0.91888222  0.08997094     0.36100
C1318       C  0.37694760  0.96821699  0.94809275     0.36000
N1319       N  0.32394165  0.90817485  0.11853707    -0.44200
N1320       N  0.38650683  0.97901932  0.91969229    -0.44200
C1321       C  0.36272944  0.88752343  0.55211646    -0.00600
C1322       C  0.33166445  0.88228768  0.55051954    -0.12500
C1323       C  0.32019024  0.89019881  0.51969803     0.01600
C1324       C  0.34002316  0.90437087  0.48920724    -0.00700
C1325       C  0.37172628  0.91178456  0.49171451    -0.12500
C1326       C  0.38321280  0.90376608  0.52267570     0.01500
H1327       H  0.31538876  0.87008893  0.57264207     0.14500
H1328       H  0.38764783  0.92371724  0.46920838     0.14500
C1329       C  0.41612697  0.91271461  0.52327433     0.36100
C1330       C  0.28728419  0.88144554  0.51950692     0.36000
N1331       N  0.44265530  0.92040570  0.52356747    -0.44200
N1332       N  0.26088534  0.87430715  0.51938195    -0.44200
C1333       C  0.23721805  0.74910075  0.46247007    -0.00600
C1334       C  0.23352771  0.76554334  0.49157712    -0.12500
C1335       C  0.25815847  0.78236974  0.51544861     0.01600
C1336       C  0.28661488  0.78216151  0.51036290    -0.00700
C1337       C  0.29142922  0.76874530  0.47927046    -0.12500
C1338       C  0.26705208  0.75192516  0.45547648     0.01500
H1339       H  0.21118584  0.76473625  0.49625289     0.14500
H1340       H  0.31380923  0.76947669  0.47500348     0.14500
C1341       C  0.27344039  0.73675039  0.42555724     0.36100
C1342       C  0.25275022  0.79749670  0.54611435     0.36000
N1343       N  0.27879519  0.72477738  0.40162809    -0.44200
N1344       N  0.24831063  0.80954596  0.57067188    -0.44200
C1345       C  0.23689972  0.64687247  0.63967720    -0.00600
C1346       C  0.22728716  0.66652302  0.62318157    -0.12500
C1347       C  0.24847255  0.69862099  0.61818182     0.01600
C1348       C  0.28009236  0.71151266  0.62960663    -0.00700
C1349       C  0.28860112  0.69248105  0.64968596    -0.12500
C1350       C  0.26711945  0.66056844  0.65527429     0.01500
H1351       H  0.20435872  0.65617257  0.61039242     0.14500
H1352       H  0.31250065  0.70217610  0.65951420     0.14500
C1353       C  0.27707446  0.64161849  0.67511770     0.36100
C1354       C  0.23801791  0.71666295  0.59732500     0.36000
N1355       N  0.28466505  0.62642267  0.69170169    -0.44200
N1356       N  0.22918277  0.73072508  0.58053926    -0.44200
C1357       C  0.34778851  0.84707010  0.78255124    -0.00600
C1358       C  0.34081055  0.81711738  0.77050116    -0.12500
C1359       C  0.34855827  0.81237337  0.73541586     0.01600
C1360       C  0.36393332  0.83788844  0.71121628    -0.00700
C1361       C  0.37267694  0.86818236  0.72353747    -0.12500
C1362       C  0.36467080  0.87296593  0.75890985     0.01500
H1363       H  0.32871822  0.79698891  0.78841601     0.14500
H1364       H  0.38397899  0.88783181  0.70482854     0.14500
C1365       C  0.37227640  0.90425281  0.76931400     0.36100
C1366       C  0.33962146  0.78079706  0.72434040     0.36000
N1367       N  0.37823401  0.92929916  0.77770701    -0.44200
N1368       N  0.33242655  0.75563653  0.71502110    -0.44200
C1369       C  0.41315888  0.75870231  0.63140121    -0.00600
C1370       C  0.38962809  0.72706788  0.63009502    -0.12500
C1371       C  0.39693010  0.70308757  0.62546980     0.01600
C1372       C  0.42875488  0.71007477  0.62547575    -0.00700
C1373       C  0.45217713  0.74147551  0.63224223    -0.12500
C1374       C  0.44466579  0.76577678  0.63437929     0.01500
H1375       H  0.36526013  0.72140366  0.62758504     0.14500
H1376       H  0.47675034  0.74760790  0.63277022     0.14500
C1377       C  0.46970173  0.79786211  0.63614852     0.36100
C1378       C  0.37120081  0.67267628  0.61599560     0.36000
N1379       N  0.48972110  0.82363111  0.63764599    -0.44200
N1380       N  0.35025966  0.64883277  0.60742206    -0.44200
C1381       C  0.42859271  0.83390786  0.49723660    -0.00600
C1382       C  0.45689926  0.86244304  0.49935994    -0.12500
C1383       C  0.47849531  0.87360317  0.47046796     0.01600
C1384       C  0.47235490  0.85586350  0.43821585    -0.00700
C1385       C  0.44302922  0.82826118  0.43519102    -0.12500
C1386       C  0.42129399  0.81718304  0.46410521     0.01500
H1387       H  0.46269113  0.87592242  0.52425088     0.14500
H1388       H  0.43761499  0.81423258  0.41076255     0.14500
C1389       C  0.39278680  0.78756813  0.45951758     0.36100
C1390       C  0.00210165  0.90424893  0.47806980     0.36000
N1391       N  0.37004372  0.76377608  0.45569343    -0.44200
N1392       N  0.02408677  0.92869567  0.48144586    -0.44200
O1393       O  0.83094617  0.24308076  0.60774832    -0.82300
C1394       C  0.86822297  0.36794990  0.58377004     0.97100
O1395       O  0.84793473  0.35252415  0.60805746    -0.71400
O1396       O  0.81296637  0.30568347  0.56604197    -0.75000
Al1397     Al  0.82813937  0.30780779  0.61338000     1.49000
C1398       C  0.80870189  0.28497653  0.54324666     0.92300
O1399       O  0.88208907  0.30011381  0.53318244    -0.81200
O1400       O  0.90913249  0.30716327  0.63645589    -0.74800
Al1401     Al  0.85711695  0.27360989  0.57209793     1.90100
O1402       O  0.92124394  0.33304635  0.56649379    -0.73800
O1403       O  0.88854769  0.34746470  0.65543727    -0.73700
O1404       O  0.89273350  0.36528151  0.58160986    -0.79300
O1405       O  0.83966854  0.31001829  0.66230068    -0.77600
O1406       O  0.86164322  0.30550694  0.59854107    -1.13700
O1407       O  0.80113734  0.26356078  0.62104508    -0.72900
C1408       C  0.80571882  0.24035485  0.62089624     0.97800
C1409       C  0.91032827  0.32162620  0.53565010     0.94200
Al1410     Al  0.90012712  0.33614766  0.60948999     1.55600
O1411       O  0.82204374  0.26875248  0.54633945    -0.77500
C1412       C  0.86464765  0.33168146  0.67544748     0.98400
C1413       C  0.90511746  0.28161451  0.62273254     0.93300
O1414       O  0.89157161  0.27210059  0.59258235    -0.82800
O1415       O  0.75338561  0.31597944  0.89990412    -0.82300
C1416       C  0.87998599  0.36277651  0.91414820     0.97100
O1417       O  0.86569426  0.34138179  0.89094641    -0.71400
O1418       O  0.82220196  0.30596413  0.93627767    -0.75000
Al1419     Al  0.82059327  0.31816401  0.88853147     1.49000
C1420       C  0.80355210  0.30269400  0.96153067     0.92300
O1421       O  0.81389146  0.37431675  0.96636384    -0.81200
O1422       O  0.81157468  0.39312044  0.86078842    -0.74800
Al1423     Al  0.78541721  0.34565603  0.93110904     1.90100
O1424       O  0.84098124  0.41187333  0.92784013    -0.73800
O1425       O  0.85510629  0.37643372  0.84139396    -0.73700
O1426       O  0.87615553  0.38652672  0.91374257    -0.79300
O1427       O  0.81999597  0.32673013  0.83889399    -0.77600
O1428       O  0.81616313  0.35068244  0.90175456    -1.13700
O1429       O  0.77601739  0.28849450  0.88445180    -0.72900
C1430       C  0.75173658  0.29148008  0.88661352     0.97800
C1431       C  0.83354669  0.40276607  0.96034239     0.94200
Al1432     Al  0.84402606  0.38917815  0.88660465     1.55600
O1433       O  0.78539448  0.31391868  0.95926741    -0.77500
C1434       C  0.84125010  0.35106960  0.82377486     0.98400
C1435       C  0.78623266  0.38825331  0.87655269     0.93300
O1436       O  0.77927305  0.37661044  0.90817723    -0.82800
O1437       O  0.76320467  0.07710269  0.61647596    -0.82300
C1438       C  0.63520446  0.49051107  0.58099001     0.97100
O1439       O  0.65132801  0.48414241  0.60237024    -0.71400
O1440       O  0.70332984  0.00289287  0.56249855    -0.75000
Al1441     Al  0.69784250  0.01050840  0.61114720     1.49000
C1442       C  0.72719777  0.02037827  0.54371102     0.92300
O1443       O  0.71225029  0.07914272  0.53826230    -0.81200
O1444       O  0.69432884  0.09060880  0.63984751    -0.74800
Al1445     Al  0.73551334  0.07671722  0.57882589     1.90100
O1446       O  0.67370792  0.07929407  0.56838215    -0.73800
O1447       O  0.65601559  0.02860485  0.65543868    -0.73700
O1448       O  0.64145059  0.01922320  0.57978625    -0.79300
O1449       O  0.69200610  0.01449421  0.66058017    -0.77600
O1450       O  0.70104942  0.04738527  0.60068329    -1.13700
O1451       O  0.74146051  0.02616105  0.62149383    -0.72900
C1452       C  0.76504960  0.05305687  0.62529684     0.97800
C1453       C  0.68826350  0.08264047  0.53875529     0.94200
Al1454     Al  0.66881006  0.05379861  0.61050686     1.55600
O1455       O  0.74317618  0.04918101  0.55049773    -0.77500
C1456       C  0.66935464  0.01657244  0.67400739     0.98400
C1457       C  0.72042171  0.11332573  0.62900974     0.93300
O1458       O  0.73524567  0.11033368  0.60267259    -0.82800
O1459       O  0.66398772  0.40246392  0.88368882    -0.82300
C1460       C  0.64443754  0.00684879  0.91429365     0.97100
O1461       O  0.66556965  0.00868723  0.89273568    -0.71400
O1462       O  0.69881484  0.48356692  0.92944395    -0.75000
Al1463     Al  0.68253453  0.47600792  0.88244412     1.49000
C1464       C  0.70133853  0.46345918  0.94803048     0.92300
O1465       O  0.62239584  0.41887499  0.96204917    -0.81200
O1466       O  0.59448571  0.40786663  0.85840511    -0.74800
Al1467     Al  0.64309206  0.41235291  0.92128909     1.90100
O1468       O  0.58737430  0.42335809  0.92988916    -0.73800
O1469       O  0.62532864  0.46983730  0.84215960    -0.73700
O1470       O  0.62546093  0.48367716  0.91621113    -0.79300
O1471       O  0.67055092  0.47171735  0.83329384    -0.77600
O1472       O  0.64557841  0.44477077  0.89684610    -1.13700
O1473       O  0.70094647  0.45041352  0.87164469    -0.72900
C1474       C  0.69119885  0.42130654  0.87145437     0.97800
C1475       C  0.59616828  0.41814405  0.96015758     0.94200
Al1476     Al  0.61073445  0.44617246  0.88721213     1.55600
O1477       O  0.68135874  0.43488074  0.94597564    -0.77500
C1478       C  0.64784077  0.47425900  0.82138305     0.98400
C1479       C  0.59243207  0.38265786  0.87088866     0.93300
O1480       O  0.60440949  0.38237991  0.90102526    -0.82800
O1481       O  0.91636448  0.16050796  0.60962995    -0.82300
C1482       C  0.51541723  0.13843547  0.57618989     0.97100
O1483       O  0.51852748  0.15983542  0.59768194    -0.71400
O1484       O  0.99650589  0.18783254  0.56252768    -0.75000
Al1485     Al  0.98816355  0.17248441  0.61003623     1.49000
C1486       C  0.97746830  0.19133024  0.54296631     0.92300
O1487       O  0.92682367  0.11313975  0.53342087    -0.81200
O1488       O  0.91504187  0.08663467  0.63747427    -0.74800
Al1489     Al  0.92333586  0.13666310  0.57321468     1.90100
O1490       O  0.92898129  0.07751301  0.56688251    -0.73800
O1491       O  0.97736481  0.11454935  0.65329077    -0.73700
O1492       O  0.98980532  0.11190992  0.57849117    -0.79300
O1493       O  0.98374340  0.16159843  0.65939283    -0.77600
O1494       O  0.95464990  0.13663718  0.59751450    -1.13700
O1495       O  0.96565442  0.19432421  0.62068393    -0.72900
C1496       C  0.93692247  0.18679664  0.62187153     0.97800
C1497       C  0.92431595  0.08628200  0.53634020     0.94200
Al1498     Al  0.95306057  0.10048003  0.60846787     1.55600
O1499       O  0.94832032  0.17346828  0.54610474    -0.77500
C1500       C  0.98551941  0.13881996  0.67231800     0.98400
C1501       C  0.89050640  0.08606060  0.62491191     0.93300
O1502       O  0.89146826  0.10029482  0.59595142    -0.82800
O1503       O  0.58556663  0.25609049  0.87467900    -0.82300
C1504       C  0.99493243  0.12992084  0.91490894     0.97100
O1505       O  0.98915468  0.14565288  0.89214132    -0.71400
O1506       O  0.50734775  0.19804574  0.92574880    -0.75000
Al1507     Al  0.51793514  0.19201031  0.87820897     1.49000
C1508       C  0.52465200  0.22182240  0.94443612     0.92300
O1509       O  0.58406169  0.20673532  0.95688220    -0.81200
O1510       O  0.59961993  0.18536565  0.86005822    -0.74800
Al1511     Al  0.58289970  0.22893103  0.91427077     1.90100
O1512       O  0.58187941  0.16579875  0.93048476    -0.73800
O1513       O  0.53826357  0.14946025  0.83922940    -0.73700
O1514       O  0.52248772  0.13493002  0.91408505    -0.79300
O1515       O  0.52518726  0.18585860  0.82951248    -0.77600
O1516       O  0.55400089  0.19439265  0.89252971    -1.13700
O1517       O  0.53488576  0.23555492  0.86684906    -0.72900
C1518       C  0.56230406  0.25861881  0.86391000     0.97800
C1519       C  0.58750347  0.18280847  0.95820338     0.94200
Al1520     Al  0.55982216  0.16143397  0.88611285     1.55600
O1521       O  0.55398012  0.23725743  0.93946071    -0.77500
C1522       C  0.52894144  0.16371162  0.81807496     0.98400
C1523       C  0.62227447  0.21094021  0.87171100     0.93300
O1524       O  0.61751735  0.22765994  0.89388515    -0.82800
O1525       O  0.63177823  0.22961513  0.37924922    -0.82300
C1526       C  0.65771739  0.13373210  0.41305966     0.97100
O1527       O  0.63105873  0.12767763  0.40010707    -0.71400
O1528       O  0.60535730  0.15425129  0.43635669    -0.75000
Al1529     Al  0.61565649  0.15677971  0.38655837     1.49000
C1530       C  0.60610654  0.17512968  0.45660576     0.92300
O1531       O  0.68405667  0.22352115  0.44840101    -0.81200
O1532       O  0.69851445  0.22537923  0.34156862    -0.74800
Al1533     Al  0.65724223  0.22474929  0.41271110     1.90100
O1534       O  0.71548931  0.21877724  0.40968127    -0.73800
O1535       O  0.66878526  0.16308800  0.33518573    -0.73700
O1536       O  0.68198923  0.15917917  0.40568816    -0.79300
O1537       O  0.62010953  0.15335162  0.33494743    -0.77600
O1538       O  0.65333057  0.19082677  0.39087734    -1.13700
O1539       O  0.59358694  0.18068542  0.37540536    -0.72900
C1540       C  0.60379945  0.21009263  0.37189148     0.97800
C1541       C  0.71090181  0.22769247  0.43998857     0.94200
Al1542     Al  0.68795853  0.19117446  0.37421814     1.55600
O1543       O  0.62297940  0.20358297  0.44756823    -0.77500
C1544       C  0.64276021  0.15246950  0.31942194     0.98400
C1545       C  0.70571213  0.25187827  0.35473378     0.93300
O1546       O  0.69231632  0.25395080  0.38334730    -0.82800
O1547       O  0.73471230  0.11517432  0.11423633    -0.82300
C1548       C  0.64708597  0.15233693  0.07619695     0.97100
O1549       O  0.63888525  0.12545137  0.08985536    -0.71400
O1550       O  0.66374316  0.09788867  0.05310297    -0.75000
Al1551     Al  0.66491763  0.10661402  0.10320751     1.49000
C1552       C  0.68453315  0.09733030  0.03338483     0.92300
O1553       O  0.74067980  0.17415200  0.04578808    -0.81200
O1554       O  0.73572756  0.18554986  0.15170531    -0.74800
Al1555     Al  0.73525896  0.14387348  0.08096789     1.90100
O1556       O  0.73437898  0.20458066  0.08416201    -0.73800
O1557       O  0.67258939  0.15941451  0.15452717    -0.73700
O1558       O  0.67374301  0.17520994  0.08321689    -0.79300
O1559       O  0.66064833  0.11023949  0.15457396    -0.77600
O1560       O  0.70124988  0.14263163  0.10049774    -1.13700
O1561       O  0.68425419  0.08067985  0.11460117    -0.72900
C1562       C  0.71273788  0.08797571  0.12024726     0.97800
C1563       C  0.74641166  0.20102010  0.05560499     0.94200
Al1564     Al  0.70352977  0.17792280  0.11703121     1.55600
O1565       O  0.71305242  0.11187388  0.04357422    -0.77500
C1566       C  0.66069203  0.13315550  0.17012235     0.98400
C1567       C  0.76242885  0.19002343  0.14117827     0.93300
O1568       O  0.76472946  0.17597272  0.11336469    -0.82800
O1569       O  0.77976815  0.37706110  0.39515409    -0.82300
C1570       C  0.87432735  0.99926139  0.41457580     0.97100
O1571       O  0.87040761  0.47170746  0.41395474    -0.71400
O1572       O  0.84019384  0.41213989  0.42872450    -0.75000
Al1573     Al  0.84408451  0.43596054  0.38509892     1.49000
C1574       C  0.82549526  0.40917728  0.45825145     0.92300
O1575       O  0.76689262  0.43812776  0.44219443    -0.81200
O1576       O  0.76799571  0.45756130  0.36955015    -0.74800
Al1577     Al  0.77714149  0.41090655  0.41652830     1.90100
O1578       O  0.80492623  0.48494504  0.42830067    -0.73800
O1579       O  0.81859656  0.47122843  0.33189134    -0.73700
O1580       O  0.85950448  0.00499573  0.39048716    -0.79300
O1581       O  0.85621882  0.45958753  0.33936644    -0.77600
O1582       O  0.81081147  0.44082541  0.39381934    -1.13700
O1583       O  0.81969320  0.39854224  0.35674727    -0.72900
C1584       C  0.79455333  0.37500982  0.36804185     0.97800
C1585       C  0.78085856  0.46736082  0.44668978     0.94200
Al1586     Al  0.81188219  0.47628702  0.38085318     1.55600
O1587       O  0.80108054  0.41188635  0.45807874    -0.77500
C1588       C  0.84126739  0.46882992  0.31935783     0.98400
C1589       C  0.74551184  0.42978284  0.36712552     0.93300
O1590       O  0.74904768  0.40717354  0.37798527    -0.82800
O1591       O  0.88791670  0.10798506  0.09842705    -0.82300
C1592       C  0.87258453  0.48971648  0.08129373     0.97100
O1593       O  0.89477160  0.01869546  0.08140001    -0.71400
O1594       O  0.92019340  0.07842904  0.06901059    -0.75000
Al1595     Al  0.89980203  0.05317513  0.11077842     1.49000
C1596       C  0.90964571  0.07991139  0.03828272     0.92300
O1597       O  0.82077317  0.04359070  0.04810167    -0.81200
O1598       O  0.79898109  0.02233214  0.11964705    -0.74800
Al1599     Al  0.85498428  0.07270883  0.07551272     1.90100
O1600       O  0.81471122  0.99768515  0.06258220    -0.73800
O1601       O  0.83783269  0.01367641  0.16076204    -0.73700
O1602       O  0.85094870  0.48193485  0.10462441    -0.79300
O1603       O  0.88802734  0.02866438  0.15565025    -0.77600
O1604       O  0.86090408  0.04482687  0.09961568    -1.13700
O1605       O  0.90849127  0.09007041  0.13884892    -0.72900
C1606       C  0.90495995  0.11220531  0.12582012     0.97800
C1607       C  0.80771141  0.01448703  0.04317162     0.94200
Al1608     Al  0.82816989  0.00767851  0.11122904     1.55600
O1609       O  0.88155544  0.07440071  0.03577174    -0.77500
C1610       C  0.86259936  0.01589763  0.17389436     0.98400
C1611       C  0.80144771  0.04909992  0.12130361     0.93300
O1612       O  0.82681987  0.07329607  0.11192556    -0.82800
O1613       O  0.88724636  0.27245178  0.10500918    -0.82300
C1614       C  0.50847492  0.36497776  0.08136588     0.97100
O1615       O  0.97985135  0.36612215  0.08721983    -0.71400
O1616       O  0.91935399  0.33448260  0.07586362    -0.75000
Al1617     Al  0.94533546  0.33649074  0.11686972     1.49000
C1618       C  0.91653550  0.32206310  0.04487017     0.92300
O1619       O  0.94702345  0.26495085  0.04940972    -0.81200
O1620       O  0.97116047  0.26267125  0.11722892    -0.74800
Al1621     Al  0.92087112  0.27257660  0.07972724     1.90100
O1622       O  0.99460186  0.30336288  0.05929771    -0.73800
O1623       O  0.98551710  0.31028102  0.15926471    -0.73700
O1624       O  0.51293589  0.34640313  0.10108244    -0.79300
O1625       O  0.97120069  0.34601385  0.16073054    -0.77600
O1626       O  0.95134709  0.30522760  0.10225527    -1.13700
O1627       O  0.90899125  0.30868943  0.14683095    -0.72900
C1628       C  0.88566186  0.28374341  0.13504632     0.97800
C1629       C  0.97567664  0.28002629  0.04105900     0.94200
Al1630     Al  0.98814116  0.30690510  0.10926624     1.55600
O1631       O  0.91966084  0.29812569  0.04185388    -0.77500
C1632       C  0.98359660  0.33149685  0.17607096     0.98400
C1633       C  0.94359956  0.24013282  0.12222524     0.93300
O1634       O  0.92003682  0.24351919  0.11523428    -0.82800
O1635       O  0.61597776  0.38493279  0.40195412    -0.82300
C1636       C  0.00019192  0.36130925  0.41613297     0.97100
O1637       O  0.52300513  0.38644815  0.41419481    -0.71400
O1638       O  0.58317749  0.41492472  0.42823543    -0.75000
Al1639     Al  0.55918985  0.39314876  0.38623670     1.49000
C1640       C  0.58514329  0.40527272  0.45943226     0.92300
O1641       O  0.55163365  0.31700834  0.45247580    -0.81200
O1642       O  0.53370583  0.29374737  0.38081412    -0.74800
Al1643     Al  0.58081431  0.35136940  0.42479723     1.90100
O1644       O  0.50525136  0.30861733  0.43507501    -0.73800
O1645       O  0.52461994  0.33094263  0.33652574    -0.73700
O1646       O  0.99565055  0.33983015  0.39418033    -0.79300
O1647       O  0.53608773  0.38008644  0.34068373    -0.77600
O1648       O  0.55252867  0.35525955  0.39886391    -1.13700
O1649       O  0.59705383  0.40261632  0.35921346    -0.72900
C1650       C  0.61949675  0.39987024  0.37277353     0.97800
C1651       C  0.52223312  0.30342231  0.45644632     0.94200
Al1652     Al  0.51666478  0.32147224  0.38645487     1.55600
O1653       O  0.58014416  0.37756451  0.46313728    -0.77500
C1654       C  0.52731354  0.35546243  0.32203498     0.98400
C1655       C  0.56140838  0.29808231  0.37977791     0.93300
O1656       O  0.58430906  0.32396856  0.38986319    -0.82800
C1657       C  0.51910465  0.35436625  0.28315585    -0.00600
C1658       C  0.53028396  0.34008376  0.25895900    -0.12500
C1659       C  0.52017678  0.33444770  0.22290469     0.01600
C1660       C  0.99706438  0.33946930  0.21351552    -0.00700
C1661       C  0.99265680  0.36071126  0.23512457    -0.12500
C1662       C  0.00442809  0.36777285  0.27083555     0.01500
H1663       H  0.54701053  0.33315394  0.26839133     0.14500
H1664       H  0.97930071  0.37121570  0.22452124     0.14500
C1665       C  0.99718275  0.38781784  0.29268179     0.36100
C1666       C  0.53484936  0.32197750  0.19900396     0.36000
N1667       N  0.99125845  0.40378642  0.31026132    -0.44200
N1668       N  0.54684703  0.31227619  0.17983290    -0.44200
C1669       C  0.93883065  0.20883792  0.13349778    -0.00600
C1670       C  0.91088619  0.18800635  0.15156402    -0.12500
C1671       C  0.90183277  0.15622672  0.15513863     0.01600
C1672       C  0.92062291  0.14442676  0.14043115    -0.00700
C1673       C  0.95024670  0.16579468  0.12605776    -0.12500
C1674       C  0.95956754  0.19779304  0.12252119     0.01500
H1675       H  0.89503324  0.19612589  0.16086462     0.14500
H1676       H  0.96459911  0.15697895  0.11382075     0.14500
C1677       C  0.98884457  0.21774593  0.10376454     0.36100
C1678       C  0.87146291  0.13552946  0.17072039     0.36000
N1679       N  0.01228200  0.23367344  0.08866964    -0.44200
N1680       N  0.84704113  0.11921650  0.18337514    -0.44200
C1681       C  0.65069996  0.41235074  0.35546308    -0.00600
C1682       C  0.65843202  0.38987402  0.34342732    -0.12500
C1683       C  0.68952767  0.39563870  0.34385221     0.01600
C1684       C  0.71391059  0.42471786  0.35616285    -0.00700
C1685       C  0.70654910  0.44858693  0.36374697    -0.12500
C1686       C  0.67525238  0.44250273  0.36391657     0.01500
H1687       H  0.63962460  0.36644704  0.33772191     0.14500
H1688       H  0.72485459  0.47127947  0.37295468     0.14500
C1689       C  0.66868873  0.46648195  0.37671414     0.36100
C1690       C  0.69510880  0.37054023  0.33350993     0.36000
N1691       N  0.66371467  0.48591605  0.38695126    -0.44200
N1692       N  0.69880366  0.34992754  0.32500359    -0.44200
C1693       C  0.86061863  0.00152601  0.20998996    -0.00600
C1694       C  0.88576903  0.01540699  0.23458842    -0.12500
C1695       C  0.88231635  0.00383847  0.27035924     0.01600
C1696       C  0.84963358  0.47735815  0.28077776    -0.00700
C1697       C  0.82590514  0.46170764  0.25521845    -0.12500
C1698       C  0.82922221  0.47271048  0.21954722     0.01500
H1699       H  0.90749730  0.03598010  0.22641911     0.14500
H1700       H  0.80406416  0.44130145  0.26361606     0.14500
C1701       C  0.80348354  0.45481789  0.19500740     0.36100
C1702       C  0.90804552  0.01935857  0.29547937     0.36000
N1703       N  0.78270017  0.44034511  0.17564161    -0.44200
N1704       N  0.92869697  0.03155658  0.31564956    -0.44200
C1705       C  0.85536401  0.26563756  0.15479543    -0.00600
C1706       C  0.84798859  0.23547356  0.16677535    -0.12500
C1707       C  0.81675103  0.21066165  0.16724128     0.01600
C1708       C  0.79209112  0.21587035  0.15632940    -0.00700
C1709       C  0.79904848  0.24687503  0.14916213    -0.12500
C1710       C  0.83041037  0.27162618  0.14806792     0.01500
H1711       H  0.86693853  0.23040144  0.17153804     0.14500
H1712       H  0.78037961  0.25119936  0.14023324     0.14500
C1713       C  0.83676206  0.30208732  0.13539622     0.36100
C1714       C  0.81066830  0.17946866  0.17602843     0.36000
N1715       N  0.84208469  0.32658225  0.12527066    -0.44200
N1716       N  0.80550734  0.15438720  0.18319127    -0.44200
C1717       C  0.77251787  0.05103832  0.12722658    -0.00600
C1718       C  0.75144312  0.04238902  0.09818122    -0.12500
C1719       C  0.72628772  0.04842768  0.09896389     0.01600
C1720       C  0.72286259  0.06486809  0.12844246    -0.00700
C1721       C  0.74150047  0.06977109  0.15948690    -0.12500
C1722       C  0.76559836  0.06189659  0.15945230     0.01500
H1723       H  0.75559436  0.03231077  0.07395780     0.14500
H1724       H  0.73874882  0.08181251  0.18270899     0.14500
C1725       C  0.78208383  0.06415295  0.19268177     0.36100
C1726       C  0.70637675  0.04037080  0.06743986     0.36000
N1727       N  0.79461822  0.06511137  0.21966952    -0.44200
N1728       N  0.69044829  0.03315708  0.04207836    -0.44200
C1729       C  0.78117617  0.34379869  0.35106780    -0.00600
C1730       C  0.75686779  0.33522648  0.32558107    -0.12500
C1731       C  0.73328111  0.30366138  0.32176923     0.01600
C1732       C  0.73447679  0.28046927  0.34305099    -0.00700
C1733       C  0.76130018  0.28860493  0.36405064    -0.12500
C1734       C  0.78415531  0.31996478  0.36895385     0.01500
H1735       H  0.75448196  0.35341900  0.31162408     0.14500
H1736       H  0.76233972  0.27082173  0.38050805     0.14500
C1737       C  0.80775564  0.32721507  0.39647960     0.36100
C1738       C  0.70675162  0.29562783  0.29837689     0.36000
N1739       N  0.82633450  0.33274649  0.41885898    -0.44200
N1740       N  0.68537785  0.28891282  0.27967266    -0.44200
C1741       C  0.64026230  0.14017308  0.28192871    -0.00600
C1742       C  0.62575253  0.14864752  0.25472825    -0.12500
C1743       C  0.63006540  0.14427577  0.21781246     0.01600
C1744       C  0.64859416  0.13060473  0.20772364    -0.00700
C1745       C  0.66014581  0.11907831  0.23496112    -0.12500
C1746       C  0.65641743  0.12397357  0.27175721     0.01500
H1747       H  0.61298490  0.16072301  0.26210785     0.14500
H1748       H  0.67419376  0.10835575  0.22748218     0.14500
C1749       C  0.67066913  0.11333765  0.29850862     0.36100
C1750       C  0.61611155  0.15485981  0.19062846     0.36000
N1751       N  0.68222439  0.10496233  0.31992976    -0.44200
N1752       N  0.60493109  0.16322066  0.16870900    -0.44200
C1753       C  0.56638642  0.27138009  0.37025548    -0.00600
C1754       C  0.55131009  0.24387649  0.39142355    -0.12500
C1755       C  0.55967773  0.22030444  0.38836219     0.01600
C1756       C  0.58354346  0.22404346  0.36366364    -0.00700
C1757       C  0.59587530  0.24992538  0.33971734    -0.12500
C1758       C  0.58734571  0.27333538  0.34266666     0.01500
H1759       H  0.53455745  0.24180722  0.41223743     0.14500
H1760       H  0.61415716  0.25312365  0.32049898     0.14500
C1761       C  0.60005739  0.29885385  0.31683388     0.36100
C1762       C  0.54600548  0.19436367  0.41368126     0.36000
N1763       N  0.60970897  0.31872908  0.29533378    -0.44200
N1764       N  0.53488164  0.17360393  0.43400988    -0.44200
C1765       C  0.59916812  0.17459437  0.99185302    -0.00600
C1766       C  0.59158537  0.14322495  0.99791286    -0.12500
C1767       C  0.60491636  0.13479668  0.02672964     0.01600
C1768       C  0.62671136  0.15803772  0.05031706    -0.00700
C1769       C  0.63303731  0.18913120  0.04519780    -0.12500
C1770       C  0.61970770  0.19753264  0.01653350     0.01500
H1771       H  0.57569793  0.12519369  0.97944461     0.14500
H1772       H  0.64968223  0.20743965  0.06285262     0.14500
C1773       C  0.62953133  0.23030678  0.01164527     0.36100
C1774       C  0.59696173  0.10240352  0.03007468     0.36000
N1775       N  0.63749072  0.25658565  0.00761962    -0.44200
N1776       N  0.59030906  0.07634557  0.03273400    -0.44200
C1777       C  0.93071785  0.08860765  0.00543657    -0.00600
C1778       C  0.91871718  0.08916938  0.97082363    -0.12500
C1779       C  0.93853049  0.10036907  0.93999938     0.01600
C1780       C  0.97105640  0.11060844  0.94316398    -0.00700
C1781       C  0.98232855  0.10720112  0.97694560    -0.12500
C1782       C  0.96291241  0.09678432  0.00780418     0.01500
H1783       H  0.89403808  0.08219375  0.96800130     0.14500
H1784       H  0.00715251  0.11480189  0.98004080     0.14500
C1785       C  0.97761630  0.09631797  0.04162716     0.36100
C1786       C  0.92500217  0.10218079  0.90589643     0.36000
N1787       N  0.98964513  0.09614104  0.06859849    -0.44200
N1788       N  0.91410365  0.10371201  0.87862289    -0.44200
C1789       C  0.51050464  0.23410551  0.96965215    -0.00600
C1790       C  0.51834400  0.26551403  0.96528928    -0.12500
C1791       C  0.01569613  0.28464460  0.99451971     0.01600
C1792       C  0.98689999  0.26700422  0.01287396    -0.00700
C1793       C  0.96915169  0.23455401  0.00724341    -0.12500
C1794       C  0.48946132  0.21562655  0.99718634     0.01500
H1795       H  0.53449606  0.27964444  0.94385054     0.14500
H1796       H  0.94693094  0.22061174  0.02137822     0.14500
C1797       C  0.48351604  0.18431330  0.00480431     0.36100
C1798       C  0.03386234  0.31825654  0.99718656     0.36000
N1799       N  0.47927191  0.15949665  0.01161814    -0.44200
N1800       N  0.04865065  0.34522532  0.99891009    -0.44200
C1801       C  0.52177895  0.15487443  0.77939306    -0.00600
C1802       C  0.53600761  0.17877445  0.75342296    -0.12500
C1803       C  0.02376173  0.17124526  0.72091198     0.01600
C1804       C  0.99877357  0.14203880  0.70936245    -0.00700
C1805       C  0.98555154  0.11695370  0.73434207    -0.12500
C1806       C  0.49803654  0.12491315  0.76826630     0.01500
H1807       H  0.55450195  0.20174081  0.76170375     0.14500
H1808       H  0.96651163  0.09441653  0.72582148     0.14500
C1809       C  0.48246078  0.09962451  0.79415055     0.36100
C1810       C  0.04007306  0.19753655  0.69639054     0.36000
N1811       N  0.46995447  0.07933406  0.81489437    -0.44200
N1812       N  0.05326304  0.21873023  0.67696326    -0.44200
C1813       C  0.58549688  0.16538428  0.48992939    -0.00600
C1814       C  0.56018512  0.13442129  0.49212892    -0.12500
C1815       C  0.53795783  0.12447515  0.52056888     0.01600
C1816       C  0.54102902  0.14542740  0.54875059    -0.00700
C1817       C  0.56742470  0.17589023  0.54758799    -0.12500
C1818       C  0.58921923  0.18602957  0.51862441     0.01500
H1819       H  0.55676436  0.11806245  0.47050927     0.14500
H1820       H  0.57046971  0.19255191  0.56867132     0.14500
C1821       C  0.61484025  0.21792764  0.51898046     0.36100
C1822       C  0.51144903  0.09311039  0.51865957     0.36000
N1823       N  0.63531147  0.24353415  0.51923313    -0.44200
N1824       N  0.49015217  0.06803145  0.51679004    -0.44200
C1825       C  0.98960769  0.21841282  0.51868965    -0.00600
C1826       C  0.51504588  0.24729601  0.52946636    -0.12500
C1827       C  0.52512551  0.27591071  0.51220728     0.01600
C1828       C  0.50779292  0.27775112  0.48267407    -0.00700
C1829       C  0.47923538  0.25149401  0.47305406    -0.12500
C1830       C  0.97294679  0.23475601  0.51240885     0.01500
H1831       H  0.52852824  0.24609813  0.55218102     0.14500
H1832       H  0.46588719  0.25271054  0.45020827     0.14500
C1833       C  0.94183643  0.22439511  0.52715258     0.36100
C1834       C  0.55340764  0.30287682  0.52516625     0.36000
N1835       N  0.91694840  0.21615806  0.53897101    -0.44200
N1836       N  0.57605830  0.32443238  0.53554025    -0.44200
C1837       C  0.91494716  0.06454341  0.50423116    -0.00600
C1838       C  0.91104893  0.07513217  0.47006834    -0.12500
C1839       C  0.90009309  0.05510075  0.43981532     0.01600
C1840       C  0.89250079  0.02332139  0.44302733    -0.00700
C1841       C  0.89803160  0.01317562  0.47659051    -0.12500
C1842       C  0.90900088  0.03314620  0.50685434     0.01500
H1843       H  0.91601740  0.09913598  0.46698170     0.14500
H1844       H  0.89229590  0.98893783  0.47986916     0.14500
C1845       C  0.91276604  0.02001737  0.54040421     0.36100
C1846       C  0.89660281  0.06791366  0.40591125     0.36000
N1847       N  0.91575555  0.00938713  0.56721238    -0.44200
N1848       N  0.89373608  0.07815393  0.37874144    -0.44200
C1849       C  0.56609325  0.28960852  0.85250474    -0.00600
C1850       C  0.54272460  0.29694573  0.86326190    -0.12500
C1851       C  0.54860840  0.32803482  0.86307287     0.01600
C1852       C  0.57806075  0.35246860  0.85138220    -0.00700
C1853       C  0.59935214  0.34446485  0.83534552    -0.12500
C1854       C  0.59369655  0.31342222  0.83596087     0.01500
H1855       H  0.52088717  0.27887702  0.87513969     0.14500
H1856       H  0.62221731  0.36301763  0.82640507     0.14500
C1857       C  0.61735498  0.30707724  0.82120603     0.36100
C1858       C  0.52547534  0.33478520  0.87878640     0.36000
N1859       N  0.63671189  0.30251041  0.80942310    -0.44200
N1860       N  0.50682572  0.34012149  0.89123240    -0.44200
C1861       C  0.65230123  0.03314521  0.94081909    -0.00600
C1862       C  0.68317689  0.05898113  0.94123670    -0.12500
C1863       C  0.69413486  0.08069464  0.97007084     0.01600
C1864       C  0.67405408  0.07737753  0.99958440    -0.00700
C1865       C  0.64260885  0.05280540  0.99786386    -0.12500
C1866       C  0.63168453  0.03100566  0.96927884    -0.02100
H1867       H  0.69943549  0.06165752  0.91957069     0.14500
H1868       H  0.62657591  0.04953304  0.02002681     0.14500
C1869       C  0.59940700  0.00606126  0.97099537     0.36100
C1870       C  0.72619478  0.10587544  0.96850522     0.36000
N1871       N  0.57350483  0.98613272  0.97250650    -0.44200
N1872       N  0.75200247  0.12589278  0.96659860    -0.44200
C1873       C  0.78174920  0.00067071  0.01700067    -0.00600
C1874       C  0.77915607  0.02120080  0.99246887    -0.12500
C1875       C  0.75197531  0.01197869  0.97245041     0.01600
C1876       C  0.72941723  0.47258852  0.96955857    -0.00700
C1877       C  0.72739404  0.45376882  0.99931750    -0.12500
C1878       C  0.75376456  0.46125615  0.02025877     0.01500
H1879       H  0.79823177  0.04515807  0.98966937     0.14500
H1880       H  0.70491641  0.43386608  0.00703823     0.14500
C1881       C  0.74977871  0.44308308  0.05280707     0.36100
C1882       C  0.75155833  0.03498037  0.94819371     0.36000
N1883       N  0.74643357  0.42848462  0.07887683    -0.44200
N1884       N  0.75157105  0.05357305  0.92876838    -0.44200
C1885       C  0.57500968  0.40962678  0.99305994    -0.00600
C1886       C  0.58494133  0.40275528  0.02600024    -0.12500
C1887       C  0.56469299  0.39084488  0.05627956     0.01600
C1888       C  0.53336779  0.38530717  0.05432723    -0.00700
C1889       C  0.52425800  0.39461114  0.02253192    -0.12500
C1890       C  0.54447129  0.40650347  0.99216413     0.01500
H1891       H  0.60840279  0.40572189  0.02790872     0.14500
H1892       H  0.50039505  0.39054932  0.02031561     0.14500
C1893       C  0.53198939  0.41302070  0.95982672     0.36100
C1894       C  0.57676862  0.38414354  0.08883976     0.36000
N1895       N  0.52173408  0.41796677  0.93393830    -0.44200
N1896       N  0.58650619  0.37885395  0.11493433    -0.44200
C1897       C  0.66160630  0.11306856  0.44005290    -0.00600
C1898       C  0.63996361  0.09997976  0.46886772    -0.12500
C1899       C  0.64757903  0.08917553  0.50076978     0.01600
C1900       C  0.67756371  0.09128147  0.50444701    -0.00700
C1901       C  0.69806667  0.10208062  0.47433493    -0.12500
C1902       C  0.69050842  0.11291068  0.44265573     0.01500
H1903       H  0.61784258  0.10013040  0.46755930     0.14500
H1904       H  0.72078937  0.10323025  0.47591463     0.14500
C1905       C  0.71363339  0.12504210  0.41369647     0.36100
C1906       C  0.62418605  0.07657047  0.52934881     0.36000
N1907       N  0.73228574  0.13494823  0.39065540    -0.44200
N1908       N  0.60533765  0.06644902  0.55217060    -0.44200
C1909       C  0.79575199  0.05575783  0.63632077    -0.00600
C1910       C  0.81727706  0.08124857  0.65715446    -0.12500
C1911       C  0.84862154  0.08785203  0.66097434     0.01600
C1912       C  0.85926183  0.06962750  0.64247755    -0.00700
C1913       C  0.83693666  0.04194325  0.62577752    -0.12500
C1914       C  0.80542799  0.03473609  0.62273064     0.01500
H1915       H  0.81019226  0.09703845  0.66873945     0.14500
H1916       H  0.84489523  0.02793985  0.61106876     0.14500
C1917       C  0.78469482  0.00744539  0.60183262     0.36100
C1918       C  0.87057424  0.11555609  0.68047930     0.36000
N1919       N  0.76823510  0.98541990  0.58521749    -0.44200
N1920       N  0.88830835  0.13771931  0.69606089    -0.44200
C1921       C  0.64841011  0.48314107  0.78294623    -0.00600
C1922       C  0.64996828  0.51178749  0.77417996    -0.12500
C1923       C  0.64099628  0.01148361  0.73493899     0.01600
C1924       C  0.65827753  0.00292503  0.71107901    -0.00700
C1925       C  0.66627522  0.98046760  0.72308112    -0.12500
C1926       C  0.65105496  0.46498082  0.75502608     0.01500
H1927       H  0.64836222  0.52601397  0.79571310     0.14500
H1928       H  0.67825858  0.97236871  0.70484356     0.14500
C1929       C  0.64824106  0.43475616  0.76245100     0.36100
C1930       C  0.63083441  0.03333583  0.72403931     0.36000
N1931       N  0.64582625  0.41047727  0.76834276    -0.44200
N1932       N  0.62252310  0.05075170  0.71530613    -0.44200
C1933       C  0.61547802  0.46731859  0.55292478    -0.00600
C1934       C  0.61414000  0.47882809  0.51842468    -0.12500
C1935       C  0.60376397  0.45922917  0.48798747     0.01600
C1936       C  0.59393183  0.42681695  0.49153728    -0.00700
C1937       C  0.59266703  0.41487626  0.52678130    -0.12500
C1938       C  0.60328600  0.43471185  0.55722934     0.01500
H1939       H  0.62325054  0.50378611  0.51461308     0.14500
H1940       H  0.58414902  0.39004633  0.53056726     0.14500
C1941       C  0.60180494  0.42109687  0.59251832     0.36100
C1942       C  0.60458466  0.47374044  0.45350352     0.36000
N1943       N  0.60053741  0.41027263  0.62088613    -0.44200
N1944       N  0.60521712  0.48565716  0.42608651    -0.44200
C1945       C  0.76697493  0.48093055  0.47120347    -0.00600
C1946       C  0.73659133  0.46108711  0.48503236    -0.12500
C1947       C  0.72108520  0.47277767  0.50623759     0.01600
C1948       C  0.73870136  0.00712838  0.51573508    -0.00700
C1949       C  0.76462632  0.02799766  0.49446565    -0.12500
C1950       C  0.78023657  0.01727042  0.47198112     0.01500
H1951       H  0.72458139  0.43623142  0.47902003     0.14500
H1952       H  0.77327510  0.05302286  0.49588621     0.14500
C1953       C  0.80632005  0.04028846  0.45054373     0.36100
C1954       C  0.68992580  0.45081714  0.51934698     0.36000
N1955       N  0.82706407  0.05893722  0.43339642    -0.44200
N1956       N  0.66504734  0.43288252  0.52976128    -0.44200
C1957       C  0.90985555  0.33534491  0.01140145    -0.00600
C1958       C  0.91234623  0.32376219  0.97721227    -0.12500
C1959       C  0.90524608  0.33408819  0.94482603     0.01600
C1960       C  0.89564341  0.35695785  0.94573797    -0.00700
C1961       C  0.89485040  0.36987196  0.97962709    -0.12500
C1962       C  0.90157127  0.35926576  0.01215270     0.01500
H1963       H  0.91939948  0.30600826  0.97561663     0.14500
H1964       H  0.88698385  0.38702258  0.98110741     0.14500
C1965       C  0.89820143  0.37248659  0.04576353     0.36100
C1966       C  0.90742473  0.32021279  0.91112370     0.36000
N1967       N  0.89536979  0.38320658  0.07255014    -0.44200
N1968       N  0.90908364  0.30895674  0.88418297    -0.44200
C1969       C  0.79987266  0.28250864  0.99230052    -0.00600
C1970       C  0.80455594  0.25683974  0.98654571    -0.12500
C1971       C  0.78883495  0.23015278  0.00826796     0.01600
C1972       C  0.76792313  0.22932478  0.03538114    -0.00700
C1973       C  0.76813376  0.25713502  0.04486653    -0.12500
C1974       C  0.78435528  0.28384372  0.02396521     0.01500
H1975       H  0.81812822  0.25646914  0.96330705     0.14500
H1976       H  0.75421511  0.25779287  0.06757297     0.14500
C1977       C  0.78211922  0.31115439  0.03398728     0.36100
C1978       C  0.79487820  0.20454384  0.00228732     0.36000
N1979       N  0.77967771  0.33258459  0.04233633    -0.44200
N1980       N  0.80055583  0.18451714  0.99778442    -0.44200
C1981       C  0.72042747  0.26513315  0.87615815    -0.00600
C1982       C  0.70498634  0.26752026  0.84512868    -0.12500
C1983       C  0.67305362  0.24561545  0.83881746     0.01600
C1984       C  0.65588204  0.22149173  0.86424839    -0.00700
C1985       C  0.67230193  0.21742391  0.89311234    -0.12500
C1986       C  0.70416464  0.23889818  0.89926141     0.01500
H1987       H  0.71744792  0.28717194  0.82668054     0.14500
H1988       H  0.65928140  0.19942184  0.91336301     0.14500
C1989       C  0.71856061  0.23528117  0.93174641     0.36100
C1990       C  0.65791553  0.24869933  0.80675480     0.36000
N1991       N  0.72972729  0.23216824  0.95797777    -0.44200
N1992       N  0.64586999  0.25061341  0.78060679    -0.44200
C1993       C  0.71373642  0.41027712  0.86074195    -0.00600
C1994       C  0.74498419  0.43294933  0.85123075    -0.12500
C1995       C  0.76955960  0.42579047  0.85185070     0.01600
C1996       C  0.76278983  0.39511279  0.85996415    -0.00700
C1997       C  0.73120124  0.37164207  0.86409890    -0.12500
C1998       C  0.70697431  0.37897152  0.86620410     0.01500
H1999       H  0.75094333  0.45712949  0.84689338     0.14500
H2000       H  0.72591616  0.34794779  0.87070051     0.14500
C2001       C  0.67694264  0.35472395  0.87975092     0.36100
C2002       C  0.80169471  0.45085998  0.84874903     0.36000
N2003       N  0.65341037  0.33536610  0.89187761    -0.44200
N2004       N  0.82752254  0.47087708  0.84657526    -0.44200
C2005       C  0.86876839  0.46707658  0.05198407    -0.00600
C2006       C  0.87732156  0.47849684  0.01627309    -0.12500
C2007       C  0.86697392  0.45826242  0.98620016     0.01600
C2008       C  0.84741685  0.42545446  0.99134081    -0.00700
C2009       C  0.84088828  0.41401613  0.02730635    -0.12500
C2010       C  0.85116979  0.43429748  0.05730637     0.01500
H2011       H  0.89061058  0.50360261  0.01157805     0.14500
H2012       H  0.82723220  0.38904980  0.03216756     0.14500
C2013       C  0.84317126  0.42082523  0.09334785     0.36100
C2014       C  0.87620119  0.47228069  0.95051228     0.36000
N2015       N  0.83686992  0.41003939  0.12224971    -0.44200
N2016       N  0.88374365  0.48359165  0.92195687    -0.44200
C2017       C  0.86051252  0.38511378  0.55519948    -0.00600
C2018       C  0.82993319  0.38130855  0.55479479    -0.12500
C2019       C  0.81841033  0.39002793  0.52454438     0.01600
C2020       C  0.83730974  0.40238010  0.49292563    -0.00700
C2021       C  0.86868114  0.40849410  0.49444603    -0.12500
C2022       C  0.88047539  0.40058500  0.52517896     0.01500
H2023       H  0.81422248  0.37014790  0.57768374     0.14500
H2024       H  0.88420530  0.41947216  0.47136073     0.14500
C2025       C  0.91326887  0.40906332  0.52510020     0.36100
C2026       C  0.78672120  0.38500725  0.52671545     0.36000
N2027       N  0.93972300  0.41645196  0.52510940    -0.44200
N2028       N  0.76140126  0.38116069  0.52886058    -0.44200
C2029       C  0.73766356  0.24526999  0.46423388    -0.00600
C2030       C  0.73392371  0.26180030  0.49320060    -0.12500
C2031       C  0.75825278  0.27824063  0.51761504     0.01600
C2032       C  0.78653005  0.27746032  0.51350939    -0.00700
C2033       C  0.79138544  0.26364886  0.48271279    -0.12500
C2034       C  0.76736724  0.24753254  0.45808979     0.01500
H2035       H  0.71178142  0.26153686  0.49722045     0.14500
H2036       H  0.81361630  0.26401030  0.47891089     0.14500
C2037       C  0.77408463  0.23291189  0.42784307     0.36100
C2038       C  0.75268673  0.29387981  0.54760775     0.36000
N2039       N  0.77981510  0.22157933  0.40353976    -0.44200
N2040       N  0.74804946  0.30626256  0.57165963    -0.44200
C2041       C  0.73501058  0.14514602  0.64445163    -0.00600
C2042       C  0.72627615  0.16578025  0.62889833    -0.12500
C2043       C  0.74845284  0.19756721  0.62369813     0.01600
C2044       C  0.78028922  0.20914660  0.63370905    -0.00700
C2045       C  0.78798392  0.18925907  0.65327624    -0.12500
C2046       C  0.76537293  0.15773798  0.65948045     0.01500
H2047       H  0.70312604  0.15637426  0.61685562     0.14500
H2048       H  0.81186997  0.19801295  0.66267751     0.14500
C2049       C  0.77401396  0.13796903  0.67974984     0.36100
C2050       C  0.73842002  0.21668282  0.60439667     0.36000
N2051       N  0.78039986  0.12211333  0.69686748    -0.44200
N2052       N  0.72984410  0.23163681  0.58902127    -0.44200
C2053       C  0.85105570  0.34849378  0.78626657    -0.00600
C2054       C  0.84712555  0.31927367  0.77555899    -0.12500
C2055       C  0.85402515  0.31430118  0.74018508     0.01600
C2056       C  0.86471433  0.33866564  0.71437594    -0.00700
C2057       C  0.87067221  0.36850837  0.72531413    -0.12500
C2058       C  0.86413568  0.37368263  0.76112991     0.01500
H2059       H  0.83840800  0.30002461  0.79490420     0.14500
H2060       H  0.87888497  0.38732270  0.70543720     0.14500
C2061       C  0.86954798  0.40445977  0.77074110     0.36100
C2062       C  0.85008114  0.28396055  0.73085759     0.36000
N2063       N  0.87397438  0.42914690  0.77855190    -0.44200
N2064       N  0.84722940  0.25981426  0.72325958    -0.44200
C2065       C  0.91416941  0.26012870  0.64039869    -0.00600
C2066       C  0.89018650  0.22868946  0.64183127    -0.12500
C2067       C  0.89662389  0.20412476  0.63715815     0.01600
C2068       C  0.92820077  0.21055410  0.63465418    -0.00700
C2069       C  0.95237332  0.24195594  0.63946603    -0.12500
C2070       C  0.94558744  0.26670841  0.64139430     0.01500
H2071       H  0.86588861  0.22347754  0.64092059     0.14500
H2072       H  0.97682008  0.24767600  0.63816855     0.14500
C2073       C  0.97107245  0.29862873  0.64044076     0.36100
C2074       C  0.87008410  0.17361585  0.62999108     0.36000
N2075       N  0.99144798  0.32427477  0.63971050    -0.44200
N2076       N  0.84839550  0.14970316  0.62324572    -0.44200
C2077       C  0.93116713  0.33341039  0.50270212    -0.00600
C2078       C  0.95914447  0.36248248  0.50430317    -0.12500
C2079       C  0.98057446  0.37381349  0.47503142     0.01600
C2080       C  0.97495637  0.35538615  0.44346931    -0.00700
C2081       C  0.94608156  0.32719350  0.44109817    -0.12500
C2082       C  0.92429632  0.31626441  0.46993012     0.01500
H2083       H  0.96457709  0.37640919  0.52879344     0.14500
H2084       H  0.94092407  0.31272623  0.41708701     0.14500
C2085       C  0.89587926  0.28655951  0.46543733     0.36100
C2086       C  0.50565827  0.40338525  0.47801356     0.36000
N2087       N  0.87308478  0.26279237  0.46174439    -0.44200
N2088       N  0.52802302  0.42736897  0.48231760    -0.44200
O2089       O  0.82360768  0.74309368  0.60577517    -0.82300
C2090       C  0.86349824  0.86791025  0.58502207     0.97100
O2091       O  0.84322672  0.85276178  0.60933504    -0.71400
O2092       O  0.80775188  0.80773157  0.56568754    -0.75000
Al2093     Al  0.82219363  0.80801996  0.61279954     1.49000
C2094       C  0.80296265  0.78726129  0.54243977     0.92300
O2095       O  0.87524157  0.79972925  0.53131123    -0.81200
O2096       O  0.90297172  0.80446813  0.63394622    -0.74800
Al2097     Al  0.84983361  0.77318899  0.57023215     1.90100
O2098       O  0.91463234  0.83209060  0.56483520    -0.73800
O2099       O  0.88271716  0.84450172  0.65630735    -0.73700
O2100       O  0.88776175  0.86490540  0.58294789    -0.79300
O2101       O  0.83302061  0.80863523  0.66134994    -0.77600
O2102       O  0.85533743  0.80491244  0.59758995    -1.13700
O2103       O  0.79388959  0.76369651  0.61909579    -0.72900
C2104       C  0.79856305  0.74054573  0.61919893     0.97800
C2105       C  0.90357517  0.82112594  0.53380899     0.94200
Al2106     Al  0.89417708  0.83448675  0.60904143     1.55600
O2107       O  0.81509221  0.76989860  0.54514851    -0.77500
C2108       C  0.85810999  0.82909611  0.67558514     0.98400
C2109       C  0.89860350  0.77920196  0.61907561     0.93300
O2110       O  0.88355788  0.76983674  0.58979402    -0.82800
O2111       O  0.75024347  0.81738478  0.90126907    -0.82300
C2112       C  0.87703404  0.86397100  0.91451675     0.97100
O2113       O  0.86243887  0.84280402  0.89120288    -0.71400
O2114       O  0.81968377  0.80782899  0.93743310    -0.75000
Al2115     Al  0.81731798  0.81964337  0.88996277     1.49000
C2116       C  0.80044544  0.80335948  0.96243938     0.92300
O2117       O  0.81078243  0.87547604  0.96809303    -0.81200
O2118       O  0.80889000  0.89500290  0.86283150    -0.74800
Al2119     Al  0.78228510  0.84689299  0.93280636     1.90100
O2120       O  0.83843655  0.91300617  0.92960718    -0.73800
O2121       O  0.85152185  0.87738517  0.84203380    -0.73700
O2122       O  0.87335044  0.88777133  0.91458193    -0.79300
O2123       O  0.81552187  0.82805577  0.84075349    -0.77600
O2124       O  0.81307409  0.85210445  0.90338297    -1.13700
O2125       O  0.77288539  0.78974506  0.88684802    -0.72900
C2126       C  0.74863422  0.79275808  0.88841669     0.97800
C2127       C  0.83079604  0.90383900  0.96208305     0.94200
Al2128     Al  0.84108993  0.89051980  0.88798321     1.55600
O2129       O  0.78223092  0.81465290  0.96096931    -0.77500
C2130       C  0.83681534  0.85180215  0.82479932     0.98400
C2131       C  0.78375500  0.89048783  0.87871412     0.93300
O2132       O  0.77616457  0.87799148  0.90991477    -0.82800
O2133       O  0.76142437  0.57505949  0.61434553    -0.82300
C2134       C  0.63813338  0.99199183  0.58011543     0.97100
O2135       O  0.65358710  0.98576418  0.60272688    -0.71400
O2136       O  0.70051465  0.50089042  0.56066982    -0.75000
Al2137     Al  0.69581820  0.50892635  0.60949208     1.49000
C2138       C  0.72433600  0.51837576  0.54176515     0.92300
O2139       O  0.71080746  0.57866147  0.53664792    -0.81200
O2140       O  0.69242084  0.59028360  0.63682388    -0.74800
Al2141     Al  0.73368719  0.57527907  0.57706421     1.90100
O2142       O  0.67088407  0.57691573  0.56575265    -0.73800
O2143       O  0.65615163  0.52948155  0.65488144    -0.73700
O2144       O  0.63906324  0.51785315  0.58045468    -0.79300
O2145       O  0.69078936  0.51322725  0.65899182    -0.77600
O2146       O  0.69914009  0.54609559  0.59898780    -1.13700
O2147       O  0.73970196  0.52414252  0.61875861    -0.72900
C2148       C  0.76339642  0.55096943  0.62256966     0.97800
C2149       C  0.68644355  0.58151676  0.53661538     0.94200
Al2150     Al  0.66711130  0.55290051  0.60906655     1.55600
O2151       O  0.74028348  0.54724987  0.54839198    -0.77500
C2152       C  0.66954212  0.51729293  0.67305002     0.98400
C2153       C  0.71867125  0.61273412  0.62645995     0.93300
O2154       O  0.73422446  0.60927422  0.60129396    -0.82800
O2155       O  0.66363071  0.90522420  0.89061021    -0.82300
C2156       C  0.65248676  0.50800275  0.91426448     0.97100
O2157       O  0.67251403  0.50872652  0.89172554    -0.71400
O2158       O  0.69428898  0.98737921  0.93286421    -0.75000
Al2159     Al  0.67828535  0.97765219  0.88560737     1.49000
C2160       C  0.69835105  0.96908630  0.95309412     0.92300
O2161       O  0.61955089  0.92147210  0.96586867    -0.81200
O2162       O  0.59142611  0.90446156  0.86261285    -0.74800
Al2163     Al  0.64160825  0.91491096  0.92673818     1.90100
O2164       O  0.58334857  0.92211809  0.93176670    -0.73800
O2165       O  0.61979551  0.96563654  0.84205491    -0.73700
O2166       O  0.61810123  0.98177518  0.91528719    -0.79300
O2167       O  0.66704172  0.97177930  0.83642400    -0.77600
O2168       O  0.64206022  0.94533764  0.90002720    -1.13700
O2169       O  0.69862848  0.95354205  0.87646145    -0.72900
C2170       C  0.68998671  0.92463336  0.87691145     0.97800
C2171       C  0.59244344  0.91862448  0.96266467     0.94200
Al2172     Al  0.60599281  0.94381114  0.88853963     1.55600
O2173       O  0.67980522  0.94005079  0.95162784    -0.77500
C2174       C  0.64343156  0.97139459  0.82250612     0.98400
C2175       C  0.58977393  0.88036982  0.87791948     0.93300
O2176       O  0.60387737  0.88260805  0.90728089    -0.82800
O2177       O  0.91437804  0.65930910  0.60517706    -0.82300
C2178       C  0.51861354  0.63830014  0.57659788     0.97100
O2179       O  0.52128479  0.65961432  0.59806588    -0.71400
O2180       O  0.99515350  0.68816247  0.55764087    -0.75000
Al2181     Al  0.98710211  0.67337029  0.60555329     1.49000
C2182       C  0.97563320  0.69165188  0.53902636     0.92300
O2183       O  0.92729848  0.61339477  0.52897490    -0.81200
O2184       O  0.91446034  0.58692933  0.63335991    -0.74800
Al2185     Al  0.92239313  0.63611556  0.56871855     1.90100
O2186       O  0.92966652  0.57806780  0.56289215    -0.73800
O2187       O  0.97668417  0.61594303  0.64973063    -0.73700
O2188       O  0.99005844  0.61294603  0.57614330    -0.79300
O2189       O  0.98326576  0.66317850  0.65504164    -0.77600
O2190       O  0.95398925  0.63700218  0.59341209    -1.13700
O2191       O  0.96349498  0.69434981  0.61564585    -0.72900
C2192       C  0.93452780  0.68608181  0.61683506     0.97800
C2193       C  0.92531171  0.58676571  0.53209048     0.94200
Al2194     Al  0.95290668  0.60125134  0.60493976     1.55600
O2195       O  0.94665539  0.67322618  0.54234846    -0.77500
C2196       C  0.98519834  0.64054587  0.66818863     0.98400
C2197       C  0.88969803  0.58535178  0.62006948     0.93300
O2198       O  0.89066524  0.59902461  0.59066541    -0.82800
O2199       O  0.58210200  0.75266070  0.87537304    -0.82300
C2200       C  0.99188906  0.62890617  0.91051658     0.97100
O2201       O  0.98625448  0.64423686  0.88703408    -0.71400
O2202       O  0.50496875  0.69386731  0.92766727    -0.75000
Al2203     Al  0.51535200  0.68792145  0.88002818     1.49000
C2204       C  0.52220692  0.71800275  0.94592521     0.92300
O2205       O  0.58318186  0.70455876  0.95736753    -0.81200
O2206       O  0.59800188  0.68292256  0.86071642    -0.74800
Al2207     Al  0.58067942  0.72599391  0.91487785     1.90100
O2208       O  0.58088066  0.66346995  0.93127252    -0.73800
O2209       O  0.53653661  0.64630063  0.84023715    -0.73700
O2210       O  0.52137740  0.63183643  0.91603893    -0.79300
O2211       O  0.52259292  0.68219240  0.83151000    -0.77600
O2212       O  0.55195695  0.69110109  0.89371965    -1.13700
O2213       O  0.53117667  0.73120982  0.86908839    -0.72900
C2214       C  0.55824588  0.75474132  0.86626031     0.97800
C2215       C  0.58678674  0.68076254  0.95876805     0.94200
Al2216     Al  0.55837621  0.65854031  0.88720334     1.55600
O2217       O  0.55152371  0.73321596  0.94060201    -0.77500
C2218       C  0.52708567  0.66070190  0.81941282     0.98400
C2219       C  0.62031356  0.70913152  0.87150726     0.93300
O2220       O  0.61532203  0.72565276  0.89367367    -0.82800
O2221       O  0.62929180  0.72895041  0.37292478    -0.82300
C2222       C  0.65788040  0.63585378  0.41141450     0.97100
O2223       O  0.63117000  0.62902265  0.39801889    -0.71400
O2224       O  0.60433589  0.65514444  0.43261777    -0.75000
Al2225     Al  0.61491669  0.65712067  0.38305235     1.49000
C2226       C  0.60441385  0.67594610  0.45238686     0.92300
O2227       O  0.68088544  0.72623370  0.44476385    -0.81200
O2228       O  0.69844470  0.72770174  0.33894877    -0.74800
Al2229     Al  0.65440289  0.72580768  0.40786950     1.90100
O2230       O  0.71346831  0.72149717  0.40784346    -0.73800
O2231       O  0.66938562  0.66501446  0.33252931    -0.73700
O2232       O  0.68168491  0.66169770  0.40403402    -0.79300
O2233       O  0.61996275  0.65301935  0.33194210    -0.77600
O2234       O  0.65204889  0.69205042  0.38725268    -1.13700
O2235       O  0.59181915  0.67967812  0.37012986    -0.72900
C2236       C  0.60164979  0.70887238  0.36518981     0.97800
C2237       C  0.70805319  0.73087895  0.43737404     0.94200
Al2238     Al  0.68745528  0.69342569  0.37192418     1.55600
O2239       O  0.61977051  0.70427399  0.44227288    -0.77500
C2240       C  0.64316329  0.65296876  0.31681058     0.98400
C2241       C  0.70414313  0.75407213  0.35131871     0.93300
O2242       O  0.68958657  0.75564506  0.37908976    -0.82800
O2243       O  0.73521383  0.61441771  0.11945836    -0.82300
C2244       C  0.64816546  0.65114836  0.07510292     0.97100
O2245       O  0.64022486  0.62414104  0.08797840    -0.71400
O2246       O  0.66823198  0.59941300  0.05059743    -0.75000
Al2247     Al  0.66638470  0.60565761  0.10135606     1.49000
C2248       C  0.69010552  0.59824923  0.03359020     0.92300
O2249       O  0.74405087  0.67377232  0.04924896    -0.81200
O2250       O  0.73442376  0.68431385  0.15402513    -0.74800
Al2251     Al  0.73754460  0.64351041  0.08494978     1.90100
O2252       O  0.73505789  0.70381366  0.08555324    -0.73800
O2253       O  0.67159999  0.65674611  0.15385330    -0.73700
O2254       O  0.67461362  0.67402954  0.08267103    -0.79300
O2255       O  0.66005473  0.60755666  0.15272346    -0.77600
O2256       O  0.70249489  0.64184642  0.10143168    -1.13700
O2257       O  0.68537397  0.57954605  0.11260514    -0.72900
C2258       C  0.71319909  0.58659927  0.12154012     0.97800
C2259       C  0.74785855  0.70033977  0.05754109     0.94200
Al2260     Al  0.70351264  0.67657320  0.11770571     1.55600
O2261       O  0.71756897  0.61160383  0.04705617    -0.77500
C2262       C  0.65975962  0.63016951  0.16877204     0.98400
C2263       C  0.76170399  0.68976668  0.14490521     0.93300
O2264       O  0.76539467  0.67581585  0.11796957    -0.82800
O2265       O  0.77881784  0.87988939  0.39229137    -0.82300
C2266       C  0.87284335  0.49853770  0.41250963     0.97100
O2267       O  0.87107678  0.97207369  0.41638425    -0.71400
O2268       O  0.83879923  0.91200704  0.42846541    -0.75000
Al2269     Al  0.84494205  0.93713927  0.38579295     1.49000
C2270       C  0.82343658  0.90896219  0.45736596     0.92300
O2271       O  0.76877839  0.94220973  0.44031610    -0.81200
O2272       O  0.77190650  0.96344130  0.36870920    -0.74800
Al2273     Al  0.77753013  0.91410430  0.41441898     1.90100
O2274       O  0.80832122  0.98875366  0.42808267    -0.73800
O2275       O  0.82224796  0.97416349  0.33189664    -0.73700
O2276       O  0.85601705  0.50347625  0.39037604    -0.79300
O2277       O  0.85909132  0.96155556  0.34090918    -0.77600
O2278       O  0.81234135  0.94340190  0.39328193    -1.13700
O2279       O  0.82038349  0.90048865  0.35612367    -0.72900
C2280       C  0.79400049  0.87760769  0.36574520     0.97800
C2281       C  0.78358609  0.97136846  0.44566311     0.94200
Al2282     Al  0.81538211  0.97981845  0.38053612     1.55600
O2283       O  0.79969169  0.91277895  0.45656304    -0.77500
C2284       C  0.84466439  0.97087974  0.32017975     0.98400
C2285       C  0.74871128  0.93621463  0.36535890     0.93300
O2286       O  0.75095075  0.91260436  0.37503616    -0.82800
O2287       O  0.87849740  0.60219222  0.09124212    -0.82300
C2288       C  0.87168265  0.99112437  0.08223889     0.97100
O2289       O  0.89458189  0.51791749  0.08004354    -0.71400
O2290       O  0.91632210  0.57735380  0.06569695    -0.75000
Al2291     Al  0.89607823  0.55184284  0.10809594     1.49000
C2292       C  0.90582331  0.57703119  0.03423768     0.92300
O2293       O  0.81678795  0.53295955  0.04134383    -0.81200
O2294       O  0.79346195  0.51313415  0.11387964    -0.74800
Al2295     Al  0.84848857  0.56482421  0.06862219     1.90100
O2296       O  0.81374374  0.48907508  0.06012088    -0.73800
O2297       O  0.83426546  0.51055010  0.15754593    -0.73700
O2298       O  0.84967449  0.98427841  0.10472652    -0.79300
O2299       O  0.88495147  0.52797853  0.15411127    -0.77600
O2300       O  0.85664016  0.53978963  0.09524343    -1.13700
O2301       O  0.90013221  0.58808958  0.13461699    -0.72900
C2302       C  0.89369879  0.60806630  0.12052311     0.97800
C2303       C  0.80643783  0.50399640  0.03817916     0.94200
Al2304     Al  0.82574425  0.50184123  0.10814731     1.55600
O2305       O  0.87695749  0.56821176  0.03056372    -0.77500
C2306       C  0.85918063  0.51428912  0.17187026     0.98400
C2307       C  0.79454912  0.53933552  0.11437828     0.93300
O2308       O  0.81862378  0.56367518  0.10292008    -0.82800
O2309       O  0.88307674  0.77560580  0.10288687    -0.82300
C2310       C  0.50413409  0.86485462  0.08290353     0.97100
O2311       O  0.97887007  0.86414562  0.08678674    -0.71400
O2312       O  0.91821743  0.83560121  0.07489898    -0.75000
Al2313     Al  0.94336483  0.83655566  0.11629956     1.49000
C2314       C  0.91525518  0.82320164  0.04385741     0.92300
O2315       O  0.94139940  0.76140249  0.05040139    -0.81200
O2316       O  0.96189018  0.75812372  0.12083491    -0.74800
Al2317     Al  0.91602243  0.77242264  0.07930814     1.90100
O2318       O  0.98908694  0.79794013  0.06277090    -0.73800
O2319       O  0.97890388  0.80697791  0.16166870    -0.73700
O2320       O  0.50945601  0.84750640  0.10363296    -0.79300
O2321       O  0.96875784  0.84563661  0.16029940    -0.77600
O2322       O  0.94713065  0.80378909  0.10271706    -1.13700
O2323       O  0.90642000  0.81034530  0.14600935    -0.72900
C2324       C  0.88221175  0.78659720  0.13351165     0.97800
C2325       C  0.97049350  0.77507477  0.04381917     0.94200
Al2326     Al  0.98214054  0.80262734  0.11182776     1.55600
O2327       O  0.91811352  0.79907311  0.04070922    -0.77500
C2328       C  0.97934737  0.83005291  0.17684526     0.98400
C2329       C  0.93340147  0.73730413  0.12498224     0.93300
O2330       O  0.91171729  0.74298557  0.11576804    -0.82800
O2331       O  0.61813754  0.88591503  0.39914265    -0.82300
C2332       C  0.99410931  0.86264401  0.41407919     0.97100
O2333       O  0.52442701  0.88587478  0.41249276    -0.71400
O2334       O  0.58455725  0.91518158  0.42686554    -0.75000
Al2335     Al  0.56072604  0.89355822  0.38461387     1.49000
C2336       C  0.58745505  0.90565820  0.45773912     0.92300
O2337       O  0.55436198  0.81692069  0.44917021    -0.81200
O2338       O  0.53649627  0.79491124  0.37610214    -0.74800
Al2339     Al  0.58326635  0.85186106  0.42190106     1.90100
O2340       O  0.50752336  0.80698072  0.43130113    -0.73800
O2341       O  0.52659248  0.83210293  0.33356140    -0.73700
O2342       O  0.98954026  0.84153237  0.39142800    -0.79300
O2343       O  0.53753423  0.88095358  0.33906045    -0.77600
O2344       O  0.55462860  0.85560446  0.39635280    -1.13700
O2345       O  0.59894854  0.90446072  0.35767163    -0.72900
C2346       C  0.62181573  0.90256723  0.37140983     0.97800
C2347       C  0.52485743  0.80175503  0.45205419     0.94200
Al2348     Al  0.51895691  0.82163958  0.38324925     1.55600
O2349       O  0.58273375  0.87794780  0.46094990    -0.77500
C2350       C  0.52841082  0.85650844  0.32002068     0.98400
C2351       C  0.56405097  0.79903782  0.37559327     0.93300
O2352       O  0.58695152  0.82463867  0.38654191    -0.82800
C2353       C  0.51819180  0.85528922  0.28203881    -0.00600
C2354       C  0.53312737  0.84730449  0.25499910    -0.12500
C2355       C  0.52122529  0.84056923  0.21967648     0.01600
C2356       C  0.99337170  0.83885096  0.21377604    -0.00700
C2357       C  0.98587782  0.85721114  0.23667101    -0.12500
C2358       C  0.99750188  0.86411774  0.27236923     0.01500
H2359       H  0.55382984  0.84557148  0.26179579     0.14500
H2360       H  0.97024844  0.86544629  0.22707689     0.14500
C2361       C  0.98789363  0.88168945  0.29546415     0.36100
C2362       C  0.53835753  0.83297893  0.19321349     0.36000
N2363       N  0.98033857  0.89579048  0.31416829    -0.44200
N2364       N  0.55226609  0.82685047  0.17233358    -0.44200
C2365       C  0.92490773  0.70487537  0.13681536    -0.00600
C2366       C  0.89289522  0.68298222  0.13961120    -0.12500
C2367       C  0.88227320  0.65093981  0.13821193     0.01600
C2368       C  0.90389333  0.63957047  0.13609141    -0.00700
C2369       C  0.93612670  0.66129009  0.13894184    -0.12500
C2370       C  0.94683691  0.69381412  0.13922328     0.01500
H2371       H  0.87564476  0.69084933  0.13922049     0.14500
H2372       H  0.95306316  0.65309278  0.13738863     0.14500
C2373       C  0.98034296  0.71501029  0.13981603     0.36100
C2374       C  0.84882673  0.63122796  0.13433770     0.36000
N2375       N  0.00721402  0.73200085  0.14048934    -0.44200
N2376       N  0.82187476  0.61778467  0.13042901    -0.44200
C2377       C  0.65415184  0.91943641  0.35676036    -0.00600
C2378       C  0.66378149  0.90250248  0.33445147    -0.12500
C2379       C  0.69520192  0.90891757  0.33417495     0.01600
C2380       C  0.71760333  0.93293139  0.35628344    -0.00700
C2381       C  0.70867012  0.95234186  0.37494739    -0.12500
C2382       C  0.67726039  0.94560236  0.37567660     0.01500
H2383       H  0.64617216  0.88240370  0.31983341     0.14500
H2384       H  0.72568470  0.97113762  0.39183885     0.14500
C2385       C  0.66882957  0.96378405  0.39933549     0.36100
C2386       C  0.70363432  0.89045334  0.31118531     0.36000
N2387       N  0.66253199  0.97860154  0.41845819    -0.44200
N2388       N  0.70986480  0.87575748  0.29180131    -0.44200
C2389       C  0.85687863  0.50045857  0.20863831    -0.00600
C2390       C  0.88151340  0.51517433  0.23375874    -0.12500
C2391       C  0.87792973  0.50399309  0.26979555     0.01600
C2392       C  0.85329406  0.97838379  0.28167040    -0.00700
C2393       C  0.82929565  0.96310379  0.25632775    -0.12500
C2394       C  0.83287441  0.97394361  0.22065056     0.01500
H2395       H  0.90284523  0.53627866  0.22583309     0.14500
H2396       H  0.80717098  0.94311764  0.26485019     0.14500
C2397       C  0.80767387  0.95589938  0.19556013     0.36100
C2398       C  0.90239847  0.52160367  0.29574222     0.36000
N2399       N  0.78754349  0.94123327  0.17551036    -0.44200
N2400       N  0.92189156  0.53577356  0.31667788    -0.44200
C2401       C  0.85215897  0.76904764  0.15374769    -0.00600
C2402       C  0.84656045  0.74080882  0.17017978    -0.12500
C2403       C  0.81599603  0.71488186  0.17227301     0.01600
C2404       C  0.79022257  0.71738803  0.15930779    -0.00700
C2405       C  0.79536528  0.74700230  0.14808948    -0.12500
C2406       C  0.82604648  0.77246778  0.14422216     0.01500
H2407       H  0.86642645  0.73763022  0.17690206     0.14500
H2408       H  0.77580394  0.74915081  0.13753175     0.14500
C2409       C  0.83030819  0.80021530  0.12549321     0.36100
C2410       C  0.81193538  0.68514571  0.18452806     0.36000
N2411       N  0.83357705  0.82227076  0.11018888    -0.44200
N2412       N  0.80866354  0.66130261  0.19441234    -0.44200
C2413       C  0.76631893  0.54128211  0.12467880    -0.00600
C2414       C  0.74193075  0.53133391  0.09932668    -0.12500
C2415       C  0.71964934  0.54142312  0.10178379     0.01600
C2416       C  0.72246626  0.56268518  0.12929508    -0.00700
C2417       C  0.74407225  0.56875437  0.15750413    -0.12500
C2418       C  0.76553099  0.55756878  0.15574723     0.01500
H2419       H  0.74184351  0.51785579  0.07591991     0.14500
H2420       H  0.74613998  0.58464331  0.17913639     0.14500
C2421       C  0.78782263  0.56478147  0.18479492     0.36100
C2422       C  0.69647888  0.53245485  0.07343835     0.36000
N2423       N  0.80558073  0.57045627  0.20818058    -0.44200
N2424       N  0.67773161  0.52472730  0.05084450    -0.44200
C2425       C  0.77889555  0.84710291  0.34678906    -0.00600
C2426       C  0.75116558  0.83924078  0.32764493    -0.12500
C2427       C  0.72746417  0.80787992  0.32376650     0.01600
C2428       C  0.73156719  0.78371150  0.33867174    -0.00700
C2429       C  0.76104603  0.79138891  0.35342173    -0.12500
C2430       C  0.78451415  0.82282668  0.35799647     0.01500
H2431       H  0.74664276  0.85778989  0.31929076     0.14500
H2432       H  0.76434751  0.77301870  0.36536085     0.14500
C2433       C  0.81236130  0.82967208  0.37839512     0.36100
C2434       C  0.69805908  0.80109108  0.30722589     0.36000
N2435       N  0.83468999  0.83531500  0.39481711    -0.44200
N2436       N  0.67455808  0.79559515  0.29368778    -0.44200
C2437       C  0.64067238  0.63967344  0.27986460    -0.00600
C2438       C  0.62472722  0.64608097  0.25242082    -0.12500
C2439       C  0.62801486  0.63998604  0.21582140     0.01600
C2440       C  0.64740691  0.62718319  0.20627380    -0.00700
C2441       C  0.66034319  0.61750276  0.23397047    -0.12500
C2442       C  0.65709077  0.62357576  0.27053878     0.01500
H2443       H  0.61134126  0.65763995  0.25925133     0.14500
H2444       H  0.67490413  0.60724605  0.22693848     0.14500
C2445       C  0.67132794  0.61358177  0.29802352     0.36100
C2446       C  0.61197801  0.64775830  0.18825424     0.36000
N2447       N  0.68253377  0.60546047  0.32017149    -0.44200
N2448       N  0.59900249  0.65366646  0.16601002    -0.44200
C2449       C  0.56834736  0.77212979  0.36517668    -0.00600
C2450       C  0.55074170  0.74345158  0.38381357    -0.12500
C2451       C  0.55711104  0.71864959  0.37904237     0.01600
C2452       C  0.58140821  0.72235793  0.35517855    -0.00700
C2453       C  0.59545957  0.74920274  0.33268504    -0.12500
C2454       C  0.58960986  0.77421612  0.33797687     0.01500
H2455       H  0.53346821  0.74119034  0.40399921     0.14500
H2456       H  0.61387453  0.75216874  0.31385412     0.14500
C2457       C  0.60620497  0.80194062  0.31574879     0.36100
C2458       C  0.54090639  0.69112540  0.40179400     0.36000
N2459       N  0.61941221  0.82391783  0.29747641    -0.44200
N2460       N  0.52784637  0.66898029  0.41987989    -0.44200
C2461       C  0.59887732  0.67293869  0.99225148    -0.00600
C2462       C  0.59134114  0.64162601  0.99842926    -0.12500
C2463       C  0.60518597  0.63341877  0.02679292     0.01600
C2464       C  0.62758500  0.65686337  0.04967482    -0.00700
C2465       C  0.63373844  0.68791297  0.04468226    -0.12500
C2466       C  0.61971587  0.69607254  0.01656361     0.01500
H2467       H  0.57503857  0.62344053  0.98039610     0.14500
H2468       H  0.65065001  0.70632034  0.06203064     0.14500
C2469       C  0.62896788  0.72874096  0.01192875     0.36100
C2470       C  0.59688136  0.60095862  0.03054672     0.36000
N2471       N  0.63643363  0.75493350  0.00819185    -0.44200
N2472       N  0.58987402  0.57483862  0.03367126    -0.44200
C2473       C  0.92750678  0.58747921  0.00168015    -0.00600
C2474       C  0.91581864  0.58921762  0.96723601    -0.12500
C2475       C  0.93562893  0.60052836  0.93639874     0.01600
C2476       C  0.96808462  0.61041563  0.93936402    -0.00700
C2477       C  0.97931059  0.60690796  0.97318606    -0.12500
C2478       C  0.95970946  0.59578181  0.00395678     0.01500
H2479       H  0.89115255  0.58228243  0.96437394     0.14500
H2480       H  0.00410380  0.61437225  0.97623308     0.14500
C2481       C  0.97397894  0.59391332  0.03748133     0.36100
C2482       C  0.92191037  0.60167539  0.90214278     0.36000
N2483       N  0.98572035  0.59255319  0.06416840    -0.44200
N2484       N  0.91077322  0.60245805  0.87472893    -0.44200
C2485       C  0.50865724  0.73093884  0.97173223    -0.00600
C2486       C  0.52954511  0.75477140  0.99495331    -0.12500
C2487       C  0.01538905  0.77539704  0.00917733     0.01600
C2488       C  0.98281131  0.76229148  0.01597804    -0.00700
C2489       C  0.96161281  0.73421927  0.99857924    -0.12500
C2490       C  0.47687720  0.72363731  0.97052897     0.01500
H2491       H  0.55412660  0.76090628  0.99594403     0.14500
H2492       H  0.93653037  0.72371113  0.00364158     0.14500
C2493       C  0.45417525  0.70065184  0.94620416     0.36100
C2494       C  0.03900150  0.80404280  0.02577959     0.36000
N2495       N  0.43554319  0.68256625  0.92679567    -0.44200
N2496       N  0.05810054  0.82679881  0.03917419    -0.44200
C2497       C  0.52091012  0.65336152  0.78019976    -0.00600
C2498       C  0.53181189  0.67892649  0.75637080    -0.12500
C2499       C  0.02337983  0.67320378  0.71676450     0.01600
C2500       C  0.99865815  0.64393645  0.70500887    -0.00700
C2501       C  0.98602201  0.61852244  0.72944719    -0.12500
C2502       C  0.50053589  0.62301727  0.76677010     0.01500
H2503       H  0.54736720  0.70234351  0.76650746     0.14500
H2504       H  0.96753510  0.59581862  0.72052892     0.14500
C2505       C  0.48692826  0.59618162  0.79078817     0.36100
C2506       C  0.04006603  0.69938556  0.69216810     0.36000
N2507       N  0.47574971  0.57472971  0.81014713    -0.44200
N2508       N  0.05368827  0.72039600  0.67260278    -0.44200
C2509       C  0.58519607  0.66617484  0.48678062    -0.00600
C2510       C  0.56150408  0.63462719  0.49085948    -0.12500
C2511       C  0.54109784  0.62427104  0.52107935     0.01600
C2512       C  0.54383928  0.64569797  0.54851835    -0.00700
C2513       C  0.56898655  0.67675555  0.54564759    -0.12500
C2514       C  0.58949862  0.68702996  0.51545112     0.01500
H2515       H  0.55818105  0.61790803  0.46972342     0.14500
H2516       H  0.57206487  0.69362707  0.56647104     0.14500
C2517       C  0.61487433  0.71904474  0.51495198     0.36100
C2518       C  0.51718581  0.59161825  0.52237759     0.36000
N2519       N  0.63531825  0.74466645  0.51472399    -0.44200
N2520       N  0.49814594  0.56540747  0.52325457    -0.44200
C2521       C  0.98618780  0.72024756  0.51785237    -0.00600
C2522       C  0.51699625  0.74639969  0.52671017    -0.12500
C2523       C  0.52616408  0.77453243  0.50872519     0.01600
C2524       C  0.51109054  0.77459061  0.47622574    -0.00700
C2525       C  0.48664971  0.74637564  0.46258076    -0.12500
C2526       C  0.96823410  0.72214279  0.48904367     0.01500
H2527       H  0.52818652  0.74668529  0.55224747     0.14500
H2528       H  0.47585320  0.74617623  0.43678646     0.14500
C2529       C  0.94108279  0.69484824  0.47470650     0.36100
C2530       C  0.55089489  0.80301930  0.52435096     0.36000
N2531       N  0.91925316  0.67298951  0.46336462    -0.44200
N2532       N  0.57072846  0.82580090  0.53688790    -0.44200
C2533       C  0.91647756  0.56502940  0.50002210    -0.00600
C2534       C  0.91328084  0.57556534  0.46545121    -0.12500
C2535       C  0.90176670  0.55510811  0.43554565     0.01600
C2536       C  0.89257465  0.52303314  0.43975783    -0.00700
C2537       C  0.89813363  0.51309793  0.47342498    -0.12500
C2538       C  0.91001074  0.53350630  0.50316948     0.01500
H2539       H  0.91911619  0.59978088  0.46181606     0.14500
H2540       H  0.89163272  0.48870127  0.47725255     0.14500
C2541       C  0.91431449  0.52072027  0.53668606     0.36100
C2542       C  0.89949530  0.56771084  0.40091192     0.36000
N2543       N  0.91788024  0.51034216  0.56336909    -0.44200
N2544       N  0.89785331  0.57789242  0.37311910    -0.44200
C2545       C  0.56067235  0.78575011  0.85955593    -0.00600
C2546       C  0.54231851  0.79366241  0.88199132    -0.12500
C2547       C  0.54840422  0.82461219  0.88450331     0.01600
C2548       C  0.57244566  0.84835399  0.86308316    -0.00700
C2549       C  0.58815911  0.83972701  0.83737092    -0.12500
C2550       C  0.58269786  0.80873213  0.83575411     0.01500
H2551       H  0.52520076  0.77619588  0.90041716     0.14500
H2552       H  0.60719792  0.85782968  0.82140137     0.14500
C2553       C  0.60074764  0.80150313  0.81045384     0.36100
C2554       C  0.53266696  0.83206659  0.91293998     0.36000
N2555       N  0.61534923  0.79624082  0.78968357    -0.44200
N2556       N  0.52020314  0.83773144  0.93614289    -0.44200
C2557       C  0.66224272  0.53483623  0.94040824    -0.00600
C2558       C  0.69440062  0.55339605  0.94933625    -0.12500
C2559       C  0.70447933  0.57514933  0.97817484     0.01600
C2560       C  0.68221630  0.57913714  0.99905402    -0.00700
C2561       C  0.65042158  0.56213403  0.98824268    -0.12500
C2562       C  0.64037262  0.54026864  0.95972845    -0.02100
H2563       H  0.71179652  0.54985521  0.93487971     0.14500
H2564       H  0.63282054  0.56494985  0.00306296     0.14500
C2565       C  0.60728121  0.52348863  0.95121654     0.36100
C2566       C  0.73768509  0.59208484  0.98623992     0.36000
N2567       N  0.58074472  0.51001532  0.94436405    -0.44200
N2568       N  0.76433701  0.60552464  0.99255017    -0.44200
C2569       C  0.78260683  0.48783628  0.01090192    -0.00600
C2570       C  0.78527021  0.50466232  0.97913189    -0.12500
C2571       C  0.75892713  0.49761724  0.95861562     0.01600
C2572       C  0.72650823  0.98109706  0.97622125    -0.00700
C2573       C  0.72959709  0.96007953  0.99968392    -0.12500
C2574       C  0.75685760  0.96951418  0.02002160     0.01500
H2575       H  0.80764945  0.52498370  0.97194393     0.14500
H2576       H  0.71058056  0.93610767  0.00235487     0.14500
C2577       C  0.75792770  0.94704014  0.04459925     0.36100
C2578       C  0.76314807  0.51681970  0.92694211     0.36000
N2579       N  0.75884528  0.92907363  0.06429209    -0.44200
N2580       N  0.76672708  0.53242487  0.90174293    -0.44200
C2581       C  0.57059703  0.90946939  0.99478033    -0.00600
C2582       C  0.58085931  0.90424314  0.02835550    -0.12500
C2583       C  0.56041670  0.89202665  0.05829671     0.01600
C2584       C  0.52862169  0.88490268  0.05550390    -0.00700
C2585       C  0.51885263  0.89208311  0.02270775    -0.12500
C2586       C  0.53921820  0.90399880  0.99253559     0.01500
H2587       H  0.60480269  0.90865234  0.03104368     0.14500
H2588       H  0.49455568  0.88653593  0.01976381     0.14500
C2589       C  0.52642603  0.90887708  0.95938044     0.36100
C2590       C  0.57285453  0.88627669  0.09114078     0.36000
N2591       N  0.51603173  0.91265941  0.93286467    -0.44200
N2592       N  0.58318106  0.88168587  0.11718490    -0.44200
C2593       C  0.66233006  0.61539338  0.43847697    -0.00600
C2594       C  0.63913789  0.59885872  0.46505372    -0.12500
C2595       C  0.64593002  0.58671500  0.49653190     0.01600
C2596       C  0.67665710  0.59114474  0.50222840    -0.00700
C2597       C  0.69894677  0.60551762  0.47421500    -0.12500
C2598       C  0.69218601  0.61747233  0.44287015     0.01500
H2599       H  0.61612755  0.59691173  0.46230546     0.14500
H2600       H  0.72235379  0.60850153  0.47727533     0.14500
C2601       C  0.71694657  0.63276813  0.41607025     0.36100
C2602       C  0.62081468  0.56983960  0.52242847     0.36000
N2603       N  0.73679664  0.64522745  0.39468234    -0.44200
N2604       N  0.60060923  0.55617191  0.54308256    -0.44200
C2605       C  0.79431707  0.55375247  0.63314340    -0.00600
C2606       C  0.81602711  0.57951180  0.65351738    -0.12500
C2607       C  0.84760098  0.58662612  0.65652205     0.01600
C2608       C  0.85833396  0.56872429  0.63753581    -0.00700
C2609       C  0.83594952  0.54075455  0.62130341    -0.12500
C2610       C  0.80409993  0.53279664  0.61956104     0.01500
H2611       H  0.80880516  0.59502466  0.66552450     0.14500
H2612       H  0.84389617  0.52679805  0.60649756     0.14500
C2613       C  0.78285889  0.50442445  0.60062973     0.36100
C2614       C  0.86951648  0.61435089  0.67602961     0.36000
N2615       N  0.76597413  0.48145286  0.58576555    -0.44200
N2616       N  0.88718283  0.63651415  0.69166217    -0.44200
C2617       C  0.64472921  0.97890742  0.78320355    -0.00600
C2618       C  0.63448564  0.99952557  0.77077237    -0.12500
C2619       C  0.65562384  0.52311997  0.73819027     0.01600
C2620       C  0.65958234  0.50546286  0.71054544    -0.00700
C2621       C  0.65655609  0.47618754  0.71929216    -0.12500
C2622       C  0.65962779  0.96844788  0.75840914     0.01500
H2623       H  0.62274221  0.00748006  0.78954235     0.14500
H2624       H  0.65914287  0.46223255  0.69811499     0.14500
C2625       C  0.66833142  0.94522217  0.76849050     0.36100
C2626       C  0.65963552  0.55378279  0.73078372     0.36000
N2627       N  0.67520337  0.92657032  0.77655375    -0.44200
N2628       N  0.66300786  0.57842526  0.72477688    -0.44200
C2629       C  0.61934331  0.96839714  0.55150908    -0.00600
C2630       C  0.61497250  0.97907432  0.51772224    -0.12500
C2631       C  0.60387480  0.95917760  0.48735527     0.01600
C2632       C  0.59707242  0.92745128  0.48996841    -0.00700
C2633       C  0.59963809  0.91640058  0.52443689    -0.12500
C2634       C  0.61028808  0.93626042  0.55488722     0.01500
H2635       H  0.62153835  0.00354134  0.51447333     0.14500
H2636       H  0.59367470  0.89213014  0.52768085     0.14500
C2637       C  0.61169794  0.92292713  0.58937932     0.36100
C2638       C  0.59980206  0.97240934  0.45405586     0.36000
N2639       N  0.61282519  0.91239371  0.61714008    -0.44200
N2640       N  0.59630941  0.98307341  0.42756075    -0.44200
C2641       C  0.76986599  0.98482542  0.47059567    -0.00600
C2642       C  0.74324683  0.96393033  0.49088869    -0.12500
C2643       C  0.72742012  0.97460966  0.51297138     0.01600
C2644       C  0.73626118  0.50506419  0.51430981    -0.00700
C2645       C  0.76614422  0.52501233  0.49937441    -0.12500
C2646       C  0.78161777  0.51338741  0.47820965     0.01500
H2647       H  0.73455133  0.93889564  0.48960683     0.14500
H2648       H  0.77818806  0.54991595  0.50513047     0.14500
C2649       C  0.81246903  0.53567068  0.46452540     0.36100
C2650       C  0.70055804  0.95145854  0.53329166     0.36000
N2651       N  0.83703984  0.55386602  0.45355482    -0.44200
N2652       N  0.67914363  0.93281022  0.54958843    -0.44200
C2653       C  0.90826920  0.83652653  0.01069979    -0.00600
C2654       C  0.90965404  0.82444251  0.97645549    -0.12500
C2655       C  0.90174393  0.83445673  0.94442887     0.01600
C2656       C  0.89287328  0.85787036  0.94568591    -0.00700
C2657       C  0.89300312  0.87115471  0.97964520    -0.12500
C2658       C  0.90007761  0.86052119  0.01190443     0.01500
H2659       H  0.91619153  0.80632194  0.97458737     0.14500
H2660       H  0.88542263  0.88851547  0.98146228     0.14500
C2661       C  0.89676672  0.87350177  0.04575661     0.36100
C2662       C  0.90182664  0.81928950  0.91087188     0.36000
N2663       N  0.89383943  0.88390142  0.07275269    -0.44200
N2664       N  0.90158565  0.80684545  0.88408849    -0.44200
C2665       C  0.79632475  0.78148776  0.99144263    -0.00600
C2666       C  0.79831037  0.75477183  0.98222403    -0.12500
C2667       C  0.78379938  0.72799900  0.00394930     0.01600
C2668       C  0.76770249  0.72839259  0.03571123    -0.00700
C2669       C  0.77012226  0.75682572  0.04730102    -0.12500
C2670       C  0.78407413  0.78322704  0.02537640     0.01500
H2671       H  0.80841131  0.75367066  0.95631303     0.14500
H2672       H  0.75955134  0.75822611  0.07270811     0.14500
C2673       C  0.78363217  0.81098865  0.03752320     0.36100
C2674       C  0.78440531  0.70035929  0.99172028     0.36000
N2675       N  0.78274460  0.83281886  0.04776309    -0.44200
N2676       N  0.78494881  0.67826135  0.98179892    -0.44200
C2677       C  0.71761325  0.76641265  0.87715820    -0.00600
C2678       C  0.70170690  0.76998586  0.84739320    -0.12500
C2679       C  0.67027703  0.74734232  0.83999754     0.01600
C2680       C  0.65398803  0.72100096  0.86296554    -0.00700
C2681       C  0.67105989  0.71600821  0.89028964    -0.12500
C2682       C  0.70241497  0.73841798  0.89768895     0.01500
H2683       H  0.71339694  0.79101220  0.83080050     0.14500
H2684       H  0.65868477  0.69641944  0.90890696     0.14500
C2685       C  0.71697375  0.73378339  0.92935713     0.36100
C2686       C  0.65465199  0.75198233  0.80945246     0.36000
N2687       N  0.72804413  0.72977413  0.95511110    -0.44200
N2688       N  0.64238119  0.75524319  0.78433020    -0.44200
C2689       C  0.71283122  0.91450696  0.86487912    -0.00600
C2690       C  0.74452432  0.93783330  0.85920074    -0.12500
C2691       C  0.76881990  0.93038341  0.85896025     0.01600
C2692       C  0.76144593  0.89898673  0.86253792    -0.00700
C2693       C  0.72971106  0.87540771  0.86273209    -0.12500
C2694       C  0.70546191  0.88273922  0.86481351     0.01500
H2695       H  0.75085929  0.96235519  0.85872647     0.14500
H2696       H  0.72397922  0.85112263  0.86568227     0.14500
C2697       C  0.67396671  0.85716398  0.87098500     0.36100
C2698       C  0.80101622  0.95549251  0.85998989     0.36000
N2699       N  0.64903343  0.83641623  0.87674641    -0.44200
N2700       N  0.82678431  0.97570162  0.86109961    -0.44200
C2701       C  0.86748566  0.96815310  0.05340213    -0.00600
C2702       C  0.87597004  0.97941665  0.01769655    -0.12500
C2703       C  0.86477620  0.95920024  0.98775192     0.01600
C2704       C  0.84503822  0.92644467  0.99305820    -0.00700
C2705       C  0.83869822  0.91508422  0.02908679    -0.12500
C2706       C  0.84937551  0.93546550  0.05899542     0.01500
H2707       H  0.88950303  0.00450503  0.01290747     0.14500
H2708       H  0.82469018  0.89017717  0.03403714     0.14500
C2709       C  0.84104891  0.92232095  0.09518368     0.36100
C2710       C  0.87270373  0.97337189  0.95206582     0.36000
N2711       N  0.83445460  0.91191333  0.12424216    -0.44200
N2712       N  0.87906806  0.98496957  0.92357477    -0.44200
C2713       C  0.85587034  0.88449955  0.55578852    -0.00600
C2714       C  0.82467897  0.87888330  0.55336954    -0.12500
C2715       C  0.81366076  0.88690037  0.52216504     0.01600
C2716       C  0.83402254  0.90124989  0.49215974    -0.00700
C2717       C  0.86570441  0.90871101  0.49545579    -0.12500
C2718       C  0.87675758  0.90080786  0.52676932     0.01500
H2719       H  0.80809343  0.86651152  0.57517681     0.14500
H2720       H  0.88204198  0.92073978  0.47331364     0.14500
C2721       C  0.90970531  0.90994454  0.52826011     0.36100
C2722       C  0.78084623  0.87839823  0.52113434     0.36000
N2723       N  0.93620418  0.91762702  0.52959481    -0.44200
N2724       N  0.75453047  0.87153941  0.52037713    -0.44200
C2725       C  0.73420296  0.74931282  0.46193798    -0.00600
C2726       C  0.72891410  0.76403436  0.49177111    -0.12500
C2727       C  0.75252008  0.78018359  0.51707913     0.01600
C2728       C  0.78173577  0.78147209  0.51235149    -0.00700
C2729       C  0.78819421  0.77017710  0.48053294    -0.12500
C2730       C  0.76475005  0.75370816  0.45555072     0.01500
H2731       H  0.70600992  0.76206269  0.49611074     0.14500
H2732       H  0.81113907  0.77207750  0.47662633     0.14500
C2733       C  0.77278840  0.74023674  0.42521726     0.36100
C2734       C  0.74530719  0.79292540  0.54872282     0.36000
N2735       N  0.77945100  0.72952133  0.40106238    -0.44200
N2736       N  0.73939003  0.80304249  0.57406014    -0.44200
C2737       C  0.73231313  0.64460964  0.64146776    -0.00600
C2738       C  0.72134758  0.66414904  0.62775930    -0.12500
C2739       C  0.74179311  0.69656767  0.62396490     0.01600
C2740       C  0.77398076  0.70950043  0.63306788    -0.00700
C2741       C  0.78352564  0.69053472  0.65143717    -0.12500
C2742       C  0.76275994  0.65846952  0.65630879     0.01500
H2743       H  0.69790670  0.65373010  0.61632221     0.14500
H2744       H  0.80770853  0.70041990  0.66025517     0.14500
C2745       C  0.77373565  0.63964310  0.67448922     0.36100
C2746       C  0.72974033  0.71514226  0.60732407     0.36000
N2747       N  0.78226630  0.62463382  0.68982338    -0.44200
N2748       N  0.71957213  0.72971072  0.59427010    -0.44200
C2749       C  0.84511900  0.84780230  0.78678563    -0.00600
C2750       C  0.83231381  0.81691637  0.77390682    -0.12500
C2751       C  0.83811228  0.81054794  0.73873271     0.01600
C2752       C  0.85713169  0.83533735  0.71483709    -0.00700
C2753       C  0.87134201  0.86626831  0.72779714    -0.12500
C2754       C  0.86556246  0.87270878  0.76350049     0.01500
H2755       H  0.81738810  0.79722169  0.79137886     0.14500
H2756       H  0.88583407  0.88549815  0.70954279     0.14500
C2757       C  0.88016085  0.90496392  0.77492067     0.36100
C2758       C  0.82400455  0.77809448  0.72785111     0.36000
N2759       N  0.89197008  0.93086368  0.78400535    -0.44200
N2760       N  0.81264416  0.75214819  0.71906276    -0.44200
C2761       C  0.90917397  0.75800118  0.63442104    -0.00600
C2762       C  0.88590772  0.72628668  0.63637956    -0.12500
C2763       C  0.89324061  0.70226449  0.63201689     0.01600
C2764       C  0.92504334  0.70953541  0.62881127    -0.00700
C2765       C  0.94862024  0.74136280  0.63209127    -0.12500
C2766       C  0.94092534  0.76551535  0.63380345     0.01500
H2767       H  0.86136820  0.72032627  0.63619801     0.14500
H2768       H  0.97321565  0.74779289  0.62977318     0.14500
C2769       C  0.96577042  0.79762750  0.63058980     0.36100
C2770       C  0.86716480  0.67124925  0.62603970     0.36000
N2771       N  0.98575347  0.82334441  0.62781944    -0.44200
N2772       N  0.84570784  0.64694118  0.62019897    -0.44200
C2773       C  0.92444897  0.83347802  0.50068828    -0.00600
C2774       C  0.95279685  0.86218912  0.50297479    -0.12500
C2775       C  0.97432269  0.87405442  0.47375186     0.01600
C2776       C  0.96863956  0.85645394  0.44146727    -0.00700
C2777       C  0.93937746  0.82872572  0.43834461    -0.12500
C2778       C  0.91733256  0.81741522  0.46706691     0.01500
H2779       H  0.95844061  0.87547746  0.52797777     0.14500
H2780       H  0.93405183  0.81495373  0.41372365     0.14500
C2781       C  0.88826283  0.78856276  0.46135974     0.36100
C2782       C  0.50717980  0.90274773  0.47589252     0.36000
N2783       N  0.86497599  0.76551001  0.45644403    -0.44200
N2784       N  0.52984843  0.92629607  0.48091473    -0.44200
loop_ 
_geom_bond_atom_site_label_1 
_geom_bond_atom_site_label_2 
_geom_bond_distance 
_geom_bond_site_symmetry_2 
_ccdc_geom_bond_type 
O1           C16   1.263       .  A
O1           Al9   1.910       .  S
C2           O12   1.265       .  A
C2            O3   1.265       .  A
C2          C625   1.499       .  S
O3           Al5   1.921       .  S
O4            C6   1.252       .  A
O4           Al5   1.865       .  S
Al5          O13   1.865       .  S
Al5          O15   1.941       .  S
Al5          O14   1.779       .  S
C6           O19   1.259       .  A
C6          C640   1.447       .  S
O7           C17   1.260       .  A
O7           Al9   1.906       .  S
O8           C21   1.273       .  A
O8          Al18   1.942       .  S
Al9          O22   1.878       .  S
Al9          O19   1.873       .  S
Al9          O14   1.762       .  S
O10          C17   1.265       .  A
O10         Al18   1.928       .  S
O11          C20   1.269       .  A
O11         Al18   1.951       .  S
O12         Al18   1.922       .  S
O13          C20   1.258       .  A
O14         Al18   1.781       .  S
O15          C16   1.266       .  A
C16         C652   1.490       .  S
C17         C685   1.497       .  S
C20         C664   1.470       .  S
C21          O22   1.261       .  A
C21         C673   1.475       .  S
O23          C38   1.261       .  A
O23         Al31   1.905       .  S
C24          O34   1.272       .  A
C24          O25   1.272       .  A
C24         C568   1.506       .  S
O25         Al27   1.930       .  S
O26          C28   1.247       .  A
O26         Al27   1.851       .  S
Al27         O35   1.866       .  S
Al27         O37   1.920       .  S
Al27         O36   1.780       .  S
C28          O41   1.259       .  A
C28         C577   1.451       .  S
O29          C39   1.261       .  A
O29         Al31   1.920       .  S
O30          C43   1.281       .  A
O30         Al40   1.948       .  S
Al31         O44   1.902       .  S
Al31         O41   1.889       .  S
Al31         O36   1.761       .  S
O32          C39   1.260       .  A
O32         Al40   1.927       .  S
O33          C42   1.264       .  A
O33         Al40   1.956       .  S
O34         Al40   1.924       .  S
O35          C42   1.251       .  A
O36         Al40   1.791       .  S
O37          C38   1.262       .  A
C38         C589   1.480       .  S
C39         C616   1.504       .  S
C42         C661   1.485       .  S
C43          O44   1.271       .  A
C43         C604   1.488       .  S
O45          C60   1.268       .  A
O45         Al53   1.931       .  S
C46          O47   1.261       .  A
C46         O752   1.263       .  A
C46         C541   1.495       .  S
O47        Al745   1.918       .  S
O48          C50   1.255       .  A
O48         Al49   1.877       .  S
Al49         O57   1.866       .  S
Al49         O59   1.916       .  S
Al49        O743   1.918   1_545  S
Al49         O58   1.786       .  S
C50          O63   1.258       .  A
C50         C556   1.471       .  S
O51          C61   1.265       .  A
O51         Al53   1.921       .  S
O52          C65   1.271       .  A
O52         Al62   1.941       .  S
Al53         O66   1.881       .  S
Al53         O63   1.884       .  S
Al53         O58   1.777       .  S
O54          C61   1.264       .  A
O54         Al62   1.926       .  S
O55          C64   1.271       .  A
O55         Al62   1.959       .  S
O56         C742   1.262   1_545  A
O56         Al62   1.915       .  S
O57          C64   1.258       .  A
O58         Al62   1.788       .  S
O59          C60   1.262       .  A
C60         C517   1.496       .  S
C61         C508   1.506       .  S
C64         C532   1.490       .  S
C65          O66   1.258       .  A
C65         C649   1.478       .  S
O67          C82   1.267       .  A
O67         Al75   1.909       .  S
C68          O69   1.267       .  A
C68         O774   1.269   1_545  A
C68         C469   1.507       .  S
O69        Al767   1.926   1_545  S
O70          C72   1.252       .  A
O70         Al71   1.866       .  S
Al71         O79   1.873       .  S
Al71         O81   1.928       .  S
Al71        O765   1.929       .  S
Al71         O80   1.769       .  S
C72          O85   1.256       .  A
C72         C484   1.458       .  S
O73          C83   1.266       .  A
O73         Al75   1.916       .  S
O74          C87   1.273       .  A
O74         Al84   1.944       .  S
Al75         O88   1.899       .  S
Al75         O85   1.884       .  S
Al75         O80   1.771       .  S
O76          C83   1.269       .  A
O76         Al84   1.944       .  S
O77          C86   1.266       .  A
O77         Al84   1.954       .  S
O78         C764   1.266       .  A
O78         Al84   1.910       .  S
O79          C86   1.254       .  A
O80         Al84   1.776       .  S
O81          C82   1.268       .  A
C82         C601   1.500       .  S
C83         C493   1.505       .  S
C86         C529   1.482       .  S
C87          O88   1.261       .  A
C87         C460   1.475       .  S
O89         C104   1.268       .  A
O89         Al97   1.923       .  S
C90          O91   1.265       .  A
C90        O1492   1.269   1_455  A
C90         C424   1.512       .  S
O91       Al1485   1.924   1_455  S
O92          C94   1.256       .  A
O92         Al93   1.872       .  S
Al93        O101   1.874       .  S
Al93        O103   1.916       .  S
Al93       O1483   1.918       .  S
Al93        O102   1.778       .  S
C94         O107   1.255       .  A
C94         C433   1.461       .  S
O95         C105   1.267       .  A
O95         Al97   1.929       .  S
O96         C109   1.271       .  A
O96        Al106   1.941       .  S
Al97        O110   1.888       .  S
Al97        O107   1.881       .  S
Al97        O102   1.776       .  S
O98         C105   1.267       .  A
O98        Al106   1.939       .  S
O99         C108   1.268       .  A
O99        Al106   1.959       .  S
O100       C1482   1.267       .  A
O100       Al106   1.924       .  S
O101        C108   1.256       .  A
O102       Al106   1.781       .  S
O103        C104   1.264       .  A
C104        C676   1.500       .  S
C105        C445   1.513       .  S
C108        C412   1.489       .  S
C109        O110   1.261       .  A
C109        C520   1.474       .  S
O111        C126   1.266       .  A
O111       Al119   1.924       .  S
C112        O113   1.258       .  A
C112       O1514   1.263       .  A
C112        C388   1.508       .  S
O113      Al1507   1.915       .  S
O114        C116   1.258       .  A
O114       Al115   1.879       .  S
Al115       O123   1.868       .  S
Al115       O125   1.915       .  S
Al115      O1505   1.923   1_455  S
Al115       O124   1.789       .  S
C116        O129   1.256       .  A
C116        C397   1.460       .  S
O117        C127   1.265       .  A
O117       Al119   1.922       .  S
O118        C131   1.269       .  A
O118       Al128   1.938       .  S
Al119       O132   1.869       .  S
Al119       O129   1.876       .  S
Al119       O124   1.779       .  S
O120        C127   1.264       .  A
O120       Al128   1.922       .  S
O121        C130   1.267       .  A
O121       Al128   1.949       .  S
O122       C1504   1.260   1_455  A
O122       Al128   1.899       .  S
O123        C130   1.257       .  A
O124       Al128   1.791       .  S
O125        C126   1.262       .  A
C126        C457   1.491       .  S
C127        C373   1.499       .  S
C130        C409   1.474       .  S
C131        O132   1.256       .  A
C131        C592   1.472       .  S
O133        C148   1.252       .  A
O133       Al141   1.833       .  S
C134        O144   1.256       .  A
C134        O135   1.278       .  A
C134        C505   1.497       .  S
O135       Al137   1.974       .  S
O136        C138   1.255       .  A
O136       Al137   1.895       .  S
Al137       O145   1.920       .  S
Al137       O147   1.973       .  S
Al137       O146   1.783       .  S
C138        O151   1.265       .  A
C138        C421   1.511       .  S
O139        C149   1.260       .  A
O139       Al141   1.876       .  S
O140        C153   1.267       .  A
O140       Al150   1.914       .  S
Al141       O154   1.934       .  S
Al141       O151   1.951       .  S
Al141       O146   1.777       .  S
O142        C149   1.255       .  A
O142       Al150   1.874       .  S
O143        C152   1.255       .  A
O143       Al150   1.895       .  S
O144       Al150   1.858       .  S
O145        C152   1.259       .  A
O146       Al150   1.790       .  S
O147        C148   1.276       .  A
C148        C364   1.475       .  S
C149        C637   1.459       .  S
C152        C349   1.483       .  S
C153        O154   1.268       .  A
C153        C340   1.479       .  S
O155        C170   1.253       .  A
O155       Al163   1.864       .  S
C156        O166   1.258       .  A
C156        O157   1.274       .  A
C156        C376   1.503       .  S
O157       Al159   1.969       .  S
O158        C160   1.261       .  A
O158       Al159   1.901       .  S
Al159       O167   1.921       .  S
Al159       O169   1.981       .  S
Al159       O168   1.785       .  S
C160        O173   1.272       .  A
C160        C472   1.512       .  S
O161        C171   1.258       .  A
O161       Al163   1.875       .  S
O162        C175   1.265       .  A
O162       Al172   1.912       .  S
Al163       O176   1.936       .  S
Al163       O173   1.962       .  S
Al163       O168   1.772       .  S
O164        C171   1.261       .  A
O164       Al172   1.890       .  S
O165        C174   1.263       .  A
O165       Al172   1.913       .  S
O166       Al172   1.876       .  S
O167        C174   1.266       .  A
O168       Al172   1.782       .  S
O169        C170   1.274       .  A
C170        C328   1.484       .  S
C171        C580   1.464       .  S
C174        C352   1.487       .  S
C175        O176   1.268       .  A
C175        C316   1.489       .  S
O177        C192   1.258       .  A
O177       Al185   1.887       .  S
C178        O188   1.269       .  A
C178        O875   1.265   1_545  A
C178        C448   1.506       .  S
O179        C874   1.260       .  A
O179       Al181   1.907       .  S
O180        C182   1.265       .  A
O180       Al181   1.925       .  S
Al181       O189   1.945       .  S
Al181       O191   1.933       .  S
Al181       O190   1.789       .  S
C182        O195   1.261       .  A
C182        C628   1.495       .  S
O183        C193   1.259       .  A
O183       Al185   1.879       .  S
O184        C197   1.264       .  A
O184       Al194   1.928       .  S
Al185       O198   1.928       .  S
Al185       O195   1.899       .  S
Al185       O190   1.772       .  S
O186        C193   1.259       .  A
O186       Al194   1.885       .  S
O187        C196   1.259       .  A
O187       Al194   1.864       .  S
O188       Al890   1.944   1_545  S
O189        C196   1.268       .  A
O190       Al194   1.784       .  S
O191        C192   1.267       .  A
C192        C337   1.476       .  S
C193        C553   1.467       .  S
Al194       O884   1.925       .  S
C196        C304   1.472       .  S
C197        O198   1.267       .  A
C197        C292   1.495       .  S
O199        C214   1.262       .  A
O199       Al207   1.888       .  S
C200        O210   1.261       .  A
C200        O897   1.266       .  A
C200        C613   1.495       .  S
O201        C896   1.267   1_545  A
O201       Al203   1.932       .  S
O202        C204   1.263       .  A
O202       Al203   1.928       .  S
Al203       O211   1.969       .  S
Al203       O213   1.947       .  S
Al203       O212   1.782       .  S
C204        O217   1.263       .  A
C204        C385   1.506   1_554  S
O205        C215   1.257       .  A
O205       Al207   1.864       .  S
O206        C219   1.260       .  A
O206       Al216   1.923       .  S
Al207       O220   1.911       .  S
Al207       O217   1.926       .  S
Al207       O212   1.765       .  S
O208        C215   1.253   1_565  A
O208       Al216   1.869   1_565  S
O209        C218   1.256       .  A
O209       Al216   1.871       .  S
O210       Al912   1.914       .  S
O211        C218   1.271       .  A
O212       Al216   1.786       .  S
O213        C214   1.276       .  A
C214        C280   1.484       .  S
C215        C481   1.442   1_545  S
Al216       O906   1.915   1_545  S
C218        C301   1.489       .  S
C219        O220   1.264       .  A
C219        C325   1.483       .  S
O221        C236   1.259       .  A
O221       Al229   1.897       .  S
C222        O232   1.261       .  A
C222       O1615   1.264   1_455  A
C222        C496   1.496       .  S
O223       C1614   1.268       .  A
O223       Al225   1.927       .  S
O224        C226   1.271       .  A
O224       Al225   1.953       .  S
Al225       O233   1.959       .  S
Al225       O235   1.956       .  S
Al225       O234   1.778       .  S
C226        O239   1.265       .  A
C226        C565   1.508       .  S
O227        C237   1.255       .  A
O227       Al229   1.893       .  S
O228        C241   1.264       .  A
O228       Al238   1.927       .  S
Al229       O242   1.900       .  S
Al229       O239   1.904       .  S
Al229       O234   1.770       .  S
O230        C237   1.255       .  A
O230       Al238   1.879       .  S
O231        C240   1.256       .  A
O231       Al238   1.873       .  S
O232      Al1630   1.915   1_455  S
O233        C240   1.269       .  A
O234       Al238   1.773       .  S
O235        C236   1.272       .  A
C236        C313   1.483       .  S
C237        C400   1.451       .  S
Al238      O1624   1.917       .  S
C240        C268   1.492       .  S
C241        O242   1.268       .  A
C241        C277   1.494       .  S
O243        C258   1.259       .  A
O243       Al251   1.886       .  S
C244        O254   1.263       .  A
C244       O1637   1.265       .  A
C244        C688   1.500       .  S
O245       C1636   1.264       .  A
O245       Al247   1.926       .  S
O246        C248   1.262       .  A
O246       Al247   1.915       .  S
Al247       O255   1.954       .  S
Al247       O257   1.946       .  S
Al247       O256   1.785       .  S
C248        O261   1.267       .  A
C248        C544   1.506       .  S
O249        C259   1.255       .  A
O249       Al251   1.874       .  S
O250        C263   1.258       .  A
O250       Al260   1.899       .  S
Al251       O264   1.943       .  S
Al251       O261   1.932       .  S
Al251       O256   1.773       .  S
O252        C259   1.260       .  A
O252       Al260   1.887       .  S
O253        C262   1.258       .  A
O253       Al260   1.866       .  S
O254      Al1652   1.917       .  S
O255        C262   1.269       .  A
O256       Al260   1.784       .  S
O257        C258   1.272       .  A
C258        C289   1.479       .  S
C259        C436   1.464       .  S
Al260      O1646   1.907   1_455  S
C262        C265   1.483       .  S
C263        O264   1.271       .  A
C263        C361   1.485       .  S
C265        C266   1.399       .  A
C265       C1662   1.413       .  A
C266        C267   1.393       .  A
C266        H271   1.086       .  S
C267       C1660   1.424   1_455  A
C267        C274   1.447       .  S
C268        C269   1.407       .  A
C268       C1659   1.419       .  A
C269        C270   1.409       .  A
C269        H272   1.084       .  S
C270       C1657   1.413       .  A
C270        C273   1.443       .  S
C273        N275   1.157       .  T
C274        N276   1.158       .  T
C277        C278   1.398       .  A
C277        C282   1.423       .  A
C278        C279   1.392       .  A
C278        H283   1.085       .  S
C279        C280   1.418       .  A
C279        C286   1.440       .  S
C280        C281   1.403       .  A
C281        C282   1.411       .  A
C281        H284   1.085       .  S
C282        C285   1.443       .  S
C285        N287   1.157       .  T
C286        N288   1.156       .  T
C289        C290   1.401       .  A
C289        C294   1.409       .  A
C290        C291   1.405       .  A
C290        H295   1.080       .  S
C291        C292   1.410       .  A
C291        C298   1.437       .  S
C292        C293   1.410       .  A
C293        C294   1.407       .  A
C293        H296   1.085       .  S
C294        C297   1.442       .  S
C297        N299   1.157       .  T
C298        N300   1.155       .  T
C301        C302   1.407       .  A
C301       C1002   1.420   1_545  A
C302        C303   1.411       .  A
C302        H307   1.084       .  S
C303       C1000   1.412   1_545  A
C303        C310   1.443       .  S
C304        C305   1.396       .  A
C304        C999   1.410       .  A
C305        C306   1.391       .  A
C305        H308   1.086       .  S
C306        C997   1.420       .  A
C306        C309   1.446       .  S
C309        N311   1.158       .  T
C310        N312   1.157       .  T
C313        C314   1.408       .  A
C313        C318   1.410       .  A
C314        C315   1.406       .  A
C314        H319   1.085       .  S
C315        C316   1.409       .  A
C315        C322   1.443       .  S
C316        C317   1.408       .  A
C317        C318   1.409       .  A
C317        H320   1.085       .  S
C318        C321   1.443       .  S
C321        N323   1.157       .  T
C322        N324   1.157       .  T
C325        C326   1.404       .  A
C325        C330   1.408       .  A
C326        C327   1.406       .  A
C326        H331   1.085       .  S
C327        C328   1.414       .  A
C327        C334   1.443       .  S
C328        C329   1.409       .  A
C329        C330   1.405       .  A
C329        H332   1.085       .  S
C330        C333   1.443       .  S
C333        N335   1.157       .  T
C334        N336   1.157       .  T
C337        C338   1.404       .  A
C337        C342   1.409       .  A
C338        C339   1.406       .  A
C338        H343   1.080       .  S
C339        C340   1.406       .  A
C339        C346   1.442       .  S
C340        C341   1.406       .  A
C341        C342   1.404       .  A
C341        H344   1.083       .  S
C342        C345   1.444       .  S
C345        N347   1.157       .  T
C346        N348   1.157       .  T
C349        C350   1.402       .  A
C349        C354   1.414       .  A
C350        C351   1.404       .  A
C350        H355   1.085       .  S
C351        C352   1.416       .  A
C351        C358   1.444       .  S
C352        C353   1.404       .  A
C353        C354   1.405       .  A
C353        H356   1.085       .  S
C354        C357   1.445       .  S
C357        N359   1.157       .  T
C358        N360   1.157       .  T
C361        C362   1.410       .  A
C361        C366   1.406       .  A
C362        C363   1.404       .  A
C362        H367   1.085       .  S
C363        C364   1.408       .  A
C363        C370   1.445       .  S
C364        C365   1.409       .  A
C365        C366   1.402       .  A
C365        H368   1.085       .  S
C366        C369   1.440       .  S
C369        N371   1.156       .  T
C370        N372   1.157       .  T
C373        C374   1.410   1_556  A
C373        C378   1.413   1_556  A
C374        C375   1.410       .  A
C374        H379   1.085   1_554  S
C375        C376   1.414       .  A
C375        C382   1.442       .  S
C376        C377   1.411       .  A
C377        C378   1.406       .  A
C377        H380   1.085       .  S
C378        C381   1.444       .  S
C381        N383   1.157       .  T
C382        N384   1.157       .  T
C385        C386   1.407       .  A
C385        C390   1.419       .  A
C386        C387   1.410       .  A
C386        H391   1.084       .  S
C387        C388   1.423       .  A
C387        C394   1.444       .  S
C388        C389   1.407       .  A
C389        C390   1.407       .  A
C389        H392   1.084       .  S
C390        C393   1.444   1_556  S
C393        N395   1.157       .  T
C394        N396   1.158       .  T
C397        C398   1.407       .  A
C397        C402   1.404   1_455  A
C398       C1791   1.390       .  A
C398        H403   1.085       .  S
C399        C400   1.402   1_556  A
C399       C1790   1.389       .  A
C399        C406   1.440       .  S
C400        C401   1.403       .  A
C401       C1794   1.394   1_554  A
C401        H404   1.086       .  S
C402       C1793   1.384   1_556  A
C402        C405   1.439       .  S
C405        N407   1.155       .  T
C406        N408   1.155       .  T
C409        C410   1.397       .  A
C409        C414   1.412   1_455  A
C410       C1803   1.393       .  A
C410        H415   1.086       .  S
C411        C412   1.417       .  A
C411       C1802   1.397       .  A
C411        C418   1.445       .  S
C412        C413   1.407       .  A
C413       C1806   1.411       .  A
C413        H416   1.084       .  S
C414       C1805   1.411       .  A
C414        C417   1.444       .  S
C417        N419   1.157       .  T
C418        N420   1.157       .  T
C421        C422   1.412       .  A
C421        C426   1.416       .  A
C422        C423   1.410       .  A
C422        H427   1.084       .  S
C423        C424   1.417       .  A
C423        C430   1.444       .  S
C424        C425   1.414       .  A
C425        C426   1.411       .  A
C425        H428   1.084       .  S
C426        C429   1.444       .  S
C429        N431   1.157       .  T
C430        N432   1.157   1_455  T
C433        C438   1.411       .  A
C433       C1826   1.403       .  A
C434        C435   1.386       .  A
C434       C1825   1.396   1_455  A
C434        H439   1.086       .  S
C435        C436   1.419       .  A
C435        C442   1.447       .  S
C436        C437   1.400   1_455  A
C437       C1830   1.393       .  A
C437        H440   1.085       .  S
C438       C1829   1.391       .  A
C438        C441   1.445       .  S
C441        N443   1.157       .  T
C442        N444   1.158       .  T
C445        C446   1.411       .  A
C445        C450   1.422       .  A
C446        C447   1.413       .  A
C446        H451   1.084       .  S
C447        C448   1.415       .  A
C447        C454   1.443       .  S
C448        C449   1.408       .  A
C449        C450   1.408       .  A
C449        H452   1.085   1_545  S
C450        C453   1.444       .  S
C453        N455   1.157       .  T
C454        N456   1.157       .  T
C457        C458   1.409       .  A
C457        C462   1.411       .  A
C458        C459   1.402       .  A
C458        H463   1.085       .  S
C459        C460   1.408       .  A
C459        C466   1.445       .  S
C460        C461   1.407       .  A
C461        C462   1.407       .  A
C461        H464   1.085       .  S
C462        C465   1.442       .  S
C465        N467   1.157       .  T
C466        N468   1.157       .  T
C469        C470   1.412       .  A
C469        C474   1.414       .  A
C470        C471   1.409       .  A
C470        H475   1.084       .  S
C471        C472   1.417   1_556  A
C471        C478   1.444       .  S
C472        C473   1.413   1_554  A
C473        C474   1.410       .  A
C473        H476   1.082   1_556  S
C474        C477   1.444       .  S
C477        N479   1.157       .  T
C478        N480   1.157       .  T
C481        C482   1.396   1_564  A
C481       C1182   1.409       .  A
C482        C483   1.385   1_545  A
C482        H487   1.086       .  S
C483       C1180   1.411       .  A
C483        C490   1.445   1_565  S
C484        C485   1.401   1_556  A
C484       C1179   1.414       .  A
C485        C486   1.389       .  A
C485        H488   1.085       .  S
C486       C1177   1.410       .  A
C486        C489   1.445       .  S
C489        N491   1.157       .  T
C490        N492   1.157       .  T
C493        C494   1.410   1_556  A
C493        C498   1.420       .  A
C494        C495   1.406       .  A
C494        H499   1.084       .  S
C495        C496   1.415       .  A
C495        C502   1.444       .  S
C496        C497   1.405       .  A
C497        C498   1.407   1_554  A
C497        H500   1.085   1_455  S
C498        C501   1.443       .  S
C501        N503   1.157       .  T
C502        N504   1.157       .  T
C505        C506   1.404       .  A
C505        C510   1.419       .  A
C506        C507   1.410       .  A
C506        H511   1.085       .  S
C507        C508   1.423       .  A
C507        C514   1.443       .  S
C508        C509   1.406       .  A
C509        C510   1.405       .  A
C509        H512   1.085       .  S
C510        C513   1.445       .  S
C513        N515   1.157       .  T
C514        N516   1.157       .  T
C517        C518   1.405       .  A
C517        C522   1.420       .  A
C518        C519   1.408       .  A
C518        H523   1.081       .  S
C519        C520   1.410       .  A
C519        C526   1.445       .  S
C520        C521   1.400       .  A
C521        C522   1.404       .  A
C521        H524   1.085       .  S
C522        C525   1.444       .  S
C525        N527   1.157   1_545  T
C526        N528   1.157       .  T
C529        C530   1.407       .  A
C529        C534   1.410       .  A
C530       C1227   1.411       .  A
C530        H535   1.085       .  S
C531        C532   1.414       .  A
C531       C1226   1.411       .  A
C531        C538   1.442       .  S
C532        C533   1.407   1_545  A
C533       C1230   1.396       .  A
C533        H536   1.085       .  S
C534       C1229   1.397       .  A
C534        C537   1.446       .  S
C537        N539   1.158       .  T
C538        N540   1.157       .  T
C541        C542   1.403       .  A
C541        C546   1.415       .  A
C542        C543   1.403       .  A
C542        H547   1.086       .  S
C543        C544   1.423       .  A
C543        C550   1.444       .  S
C544        C545   1.410       .  A
C545        C546   1.411       .  A
C545        H548   1.084       .  S
C546        C549   1.443       .  S
C549        N551   1.157       .  T
C550        N552   1.157       .  T
C553        C554   1.406       .  A
C553       C1254   1.408       .  A
C554        C555   1.388       .  A
C554        H559   1.085       .  S
C555       C1252   1.407       .  A
C555        C562   1.441       .  S
C556        C557   1.405       .  A
C556       C1251   1.412   1_545  A
C557        C558   1.388       .  A
C557        H560   1.085       .  S
C558       C1249   1.412   1_545  A
C558        C561   1.443       .  S
C561        N563   1.156       .  T
C562        N564   1.155       .  T
C565        C566   1.409   1_554  A
C565        C570   1.419       .  A
C566        C567   1.406       .  A
C566        H571   1.084       .  S
C567        C568   1.417       .  A
C567        C574   1.443       .  S
C568        C569   1.410       .  A
C569        C570   1.410   1_556  A
C569        H572   1.084       .  S
C570        C573   1.444       .  S
C573        N575   1.157       .  T
C574        N576   1.157       .  T
C577        C578   1.402       .  A
C577        C582   1.400   1_556  A
C578        C579   1.393       .  A
C578        H583   1.085       .  S
C579        C580   1.411   1_556  A
C579        C586   1.445       .  S
C580        C581   1.407       .  A
C581        C582   1.387       .  A
C581        H584   1.084       .  S
C582        C585   1.443       .  S
C585        N587   1.157       .  T
C586        N588   1.157       .  T
C589        C590   1.407       .  A
C589        C594   1.408       .  A
C590        C591   1.411       .  A
C590        H595   1.084       .  S
C591        C592   1.410       .  A
C591        C598   1.442       .  S
C592        C593   1.402       .  A
C593        C594   1.397       .  A
C593        H596   1.086       .  S
C594        C597   1.441       .  S
C597        N599   1.156       .  T
C598        N600   1.157       .  T
C601        C602   1.416       .  A
C601        C606   1.417       .  A
C602        C603   1.410       .  A
C602        H607   1.084       .  S
C603        C604   1.407       .  A
C603        C610   1.442       .  S
C604        C605   1.407       .  A
C605        C606   1.398       .  A
C605        H608   1.086       .  S
C606        C609   1.445       .  S
C609        N611   1.157       .  T
C610        N612   1.157       .  T
C613        C614   1.405       .  A
C613        C618   1.416       .  A
C614        C615   1.407   1_554  A
C614        H619   1.085       .  S
C615        C616   1.422       .  A
C615        C622   1.444       .  S
C616        C617   1.407   1_556  A
C617        C618   1.405       .  A
C617        H620   1.083       .  S
C618        C621   1.444       .  S
C621        N623   1.157       .  T
C622        N624   1.157       .  T
C625        C626   1.409       .  A
C625        C630   1.416       .  A
C626        C627   1.402       .  A
C626        H631   1.084       .  S
C627        C628   1.414       .  A
C627        C634   1.444       .  S
C628        C629   1.409       .  A
C629        C630   1.407       .  A
C629        H632   1.085       .  S
C630        C633   1.443       .  S
C633        N635   1.157       .  T
C634        N636   1.157       .  T
C637        C638   1.404       .  A
C637        C642   1.417       .  A
C638        C639   1.389       .  A
C638        H643   1.085       .  S
C639        C640   1.406       .  A
C639        C646   1.445       .  S
C640        C641   1.396       .  A
C641        C642   1.381       .  A
C641        H644   1.086       .  S
C642        C645   1.447       .  S
C645        N647   1.158       .  T
C646        N648   1.157       .  T
C649        C650   1.403       .  A
C649        C654   1.411       .  A
C650        C651   1.407       .  A
C650        H655   1.085       .  S
C651        C652   1.417       .  A
C651        C658   1.442       .  S
C652        C653   1.404       .  A
C653        C654   1.404       .  A
C653        H656   1.085       .  S
C654        C657   1.442       .  S
C657        N659   1.156       .  T
C658        N660   1.157       .  T
C661        C662   1.408       .  A
C661        C666   1.413       .  A
C662        C663   1.393       .  A
C662        H667   1.085       .  S
C663        C664   1.406       .  A
C663        C670   1.447       .  S
C664        C665   1.406       .  A
C665        C666   1.408       .  A
C665        H668   1.085       .  S
C666        C669   1.443       .  S
C669        N671   1.157       .  T
C670        N672   1.157       .  T
C673        C674   1.403       .  A
C673        C678   1.405       .  A
C674        C675   1.399       .  A
C674        H679   1.086       .  S
C675        C676   1.416       .  A
C675        C682   1.441       .  S
C676        C677   1.417       .  A
C677        C678   1.408       .  A
C677        H680   1.084       .  S
C678        C681   1.444       .  S
C681        N683   1.157       .  T
C682        N684   1.156       .  T
C685        C686   1.406       .  A
C685        C690   1.416       .  A
C686        C687   1.403       .  A
C686        H691   1.084       .  S
C687        C688   1.416       .  A
C687       C2086   1.442       .  S
C688        C689   1.410       .  A
C689        C690   1.405       .  A
C689        H692   1.084       .  S
C690        C693   1.444       .  S
C693        N695   1.157       .  T
C694       C2079   1.443   1_455  S
C694        N696   1.157       .  T
O697        C712   1.264       .  A
O697       Al705   1.907       .  S
C698        O708   1.267       .  A
C698        O699   1.266       .  A
C698       C1321   1.505       .  S
O699       Al701   1.921       .  S
O700        C702   1.252       .  A
O700       Al701   1.872       .  S
Al701       O709   1.861       .  S
Al701       O711   1.940       .  S
Al701       O710   1.776       .  S
C702        O715   1.258       .  A
C702       C1336   1.449       .  S
O703        C713   1.261       .  A
O703       Al705   1.901       .  S
O704        C717   1.275       .  A
O704       Al714   1.958       .  S
Al705       O718   1.879       .  S
Al705       O715   1.870       .  S
Al705       O710   1.761       .  S
O706        C713   1.268       .  A
O706       Al714   1.933       .  S
O707        C716   1.270       .  A
O707       Al714   1.962       .  S
O708       Al714   1.932       .  S
O709        C716   1.256       .  A
O710       Al714   1.779       .  S
O711        C712   1.267       .  A
C712       C1348   1.488       .  S
C713       C1381   1.493       .  S
C716       C1360   1.478       .  S
C717        O718   1.260       .  A
C717       C1369   1.483       .  S
O719        C734   1.262       .  A
O719       Al727   1.904       .  S
C720        O730   1.269       .  A
C720        O721   1.270       .  A
C720       C1264   1.499       .  S
O721       Al723   1.932       .  S
O722        C724   1.249       .  A
O722       Al723   1.860       .  S
Al723       O731   1.876       .  S
Al723       O733   1.936       .  S
Al723       O732   1.781       .  S
C724        O737   1.257       .  A
C724       C1273   1.452       .  S
O725        C735   1.262       .  A
O725       Al727   1.918       .  S
O726        C739   1.278       .  A
O726       Al736   1.947       .  S
Al727       O740   1.897       .  S
Al727       O737   1.884       .  S
Al727       O732   1.765       .  S
O728        C735   1.262       .  A
O728       Al736   1.931       .  S
O729        C738   1.265       .  A
O729       Al736   1.951       .  S
O730       Al736   1.919       .  S
O731        C738   1.255       .  A
O732       Al736   1.788       .  S
O733        C734   1.266       .  A
C734       C1285   1.483       .  S
C735       C1312   1.505       .  S
C738       C1357   1.493       .  S
C739        O740   1.267       .  A
C739       C1300   1.484       .  S
O741        C756   1.269       .  A
O741       Al749   1.934       .  S
C742        O743   1.260       .  A
C742       C1237   1.495       .  S
O744        C746   1.256       .  A
O744       Al745   1.879       .  S
Al745       O753   1.869       .  S
Al745       O755   1.905       .  S
Al745       O754   1.788       .  S
C746        O759   1.256       .  A
C746       C1252   1.466       .  S
O747        C757   1.267       .  A
O747       Al749   1.929       .  S
O748        C761   1.271       .  A
O748       Al758   1.940       .  S
Al749       O762   1.879       .  S
Al749       O759   1.876       .  S
Al749       O754   1.778       .  S
O750        C757   1.265       .  A
O750       Al758   1.934       .  S
O751        C760   1.270       .  A
O751       Al758   1.959       .  S
O752       Al758   1.915       .  S
O753        C760   1.256       .  A
O754       Al758   1.789       .  S
O755        C756   1.260       .  A
C756       C1213   1.495       .  S
C757       C1204   1.513       .  S
C760       C1228   1.489       .  S
C761        O762   1.258       .  A
C761       C1345   1.476       .  S
O763        C778   1.267       .  A
O763       Al771   1.913       .  S
C764        O765   1.269       .  A
C764       C1165   1.501       .  S
O766        C768   1.254       .  A
O766       Al767   1.868       .  S
Al767       O775   1.871       .  S
Al767       O777   1.922       .  S
Al767       O776   1.776       .  S
C768        O781   1.254       .  A
C768       C1180   1.447       .  S
O769        C779   1.265       .  A
O769       Al771   1.920       .  S
O770        C783   1.274       .  A
O770       Al780   1.953       .  S
Al771       O784   1.887       .  S
Al771       O781   1.870       .  S
Al771       O776   1.774       .  S
O772        C779   1.266       .  A
O772       Al780   1.934       .  S
O773        C782   1.266       .  A
O773       Al780   1.952       .  S
O774       Al780   1.930       .  S
O775        C782   1.255       .  A
O776       Al780   1.777       .  S
O777        C778   1.265       .  A
C778       C1297   1.501       .  S
C779       C1189   1.506       .  S
C782       C1225   1.482       .  S
C783        O784   1.259       .  A
C783       C1156   1.478       .  S
O785        C800   1.267       .  A
O785       Al793   1.914       .  S
C786       O2188   1.267   1_455  A
C786        O787   1.264       .  A
C786       C1120   1.505       .  S
O787      Al2181   1.920   1_455  S
O788        C790   1.255       .  A
O788       Al789   1.871       .  S
Al789      O2179   1.925       .  S
Al789       O797   1.878       .  S
Al789       O799   1.925       .  S
Al789       O798   1.773       .  S
C790        O803   1.256       .  A
C790       C1129   1.458       .  S
O791        C801   1.264       .  A
O791       Al793   1.916       .  S
O792        C805   1.271       .  A
O792       Al802   1.936       .  S
Al793       O806   1.896       .  S
Al793       O803   1.887       .  S
Al793       O798   1.773       .  S
O794        C801   1.266       .  A
O794       Al802   1.934       .  S
O795        C804   1.268       .  A
O795       Al802   1.958       .  S
O796       C2178   1.266       .  A
O796       Al802   1.917       .  S
O797        C804   1.256       .  A
O798       Al802   1.782       .  S
O799        C800   1.265       .  A
C800       C1372   1.503       .  S
C801       C1141   1.503       .  S
C804       C1108   1.495       .  S
C805        O806   1.263       .  A
C805       C1216   1.472       .  S
O807        C822   1.266       .  A
O807       Al815   1.930       .  S
C808       O2210   1.264       .  A
C808        O809   1.258       .  A
C808       C1084   1.511       .  S
O809      Al2203   1.913       .  S
O810        C812   1.259       .  A
O810       Al811   1.887       .  S
Al811      O2201   1.923   1_455  S
Al811       O819   1.875       .  S
Al811       O821   1.918       .  S
Al811       O820   1.795       .  S
C812        O825   1.260       .  A
C812       C1093   1.475       .  S
O813        C823   1.267       .  A
O813       Al815   1.929       .  S
O814        C827   1.270       .  A
O814       Al824   1.944       .  S
Al815       O828   1.872       .  S
Al815       O825   1.879       .  S
Al815       O820   1.774       .  S
O816        C823   1.260       .  A
O816       Al824   1.915       .  S
O817        C826   1.267       .  A
O817       Al824   1.943       .  S
O818       C2200   1.260   1_455  A
O818       Al824   1.904       .  S
O819        C826   1.259       .  A
O820       Al824   1.795       .  S
O821        C822   1.261       .  A
C822       C1153   1.494       .  S
C823       C1069   1.500       .  S
C826       C1105   1.473       .  S
C827        O828   1.257       .  A
C827       C1288   1.477       .  S
O829        C844   1.253       .  A
O829       Al837   1.848       .  S
C830        O840   1.256       .  A
C830        O831   1.279       .  A
C830       C1201   1.506       .  S
O831       Al833   1.982       .  S
O832        C834   1.253       .  A
O832       Al833   1.884       .  S
Al833       O841   1.927       .  S
Al833       O843   1.992       .  S
Al833       O842   1.781       .  S
C834        O847   1.266       .  A
C834       C1117   1.502       .  S
O835        C845   1.259       .  A
O835       Al837   1.874       .  S
O836        C849   1.268       .  A
O836       Al846   1.921       .  S
Al837       O850   1.935       .  S
Al837       O847   1.952       .  S
Al837       O842   1.776       .  S
O838        C845   1.257       .  A
O838       Al846   1.881       .  S
O839        C848   1.258       .  A
O839       Al846   1.906       .  S
O840       Al846   1.869       .  S
O841        C848   1.262       .  A
O842       Al846   1.789       .  S
O843        C844   1.280       .  A
C844       C1060   1.487       .  S
C845       C1333   1.461       .  S
C848       C1045   1.489       .  S
C849        O850   1.268       .  A
C849       C1036   1.484       .  S
O851        C866   1.253       .  A
O851       Al859   1.867       .  S
C852        O862   1.255       .  A
C852        O853   1.275       .  A
C852       C1072   1.509       .  S
O853       Al855   1.981       .  S
O854        C856   1.259       .  A
O854       Al855   1.893       .  S
Al855       O863   1.926       .  S
Al855       O865   1.981       .  S
Al855       O864   1.785       .  S
C856        O869   1.268       .  A
C856       C1168   1.504       .  S
O857        C867   1.259       .  A
O857       Al859   1.886       .  S
O858        C871   1.265       .  A
O858       Al868   1.914       .  S
Al859       O872   1.922       .  S
Al859       O869   1.949       .  S
Al859       O864   1.778       .  S
O860        C867   1.260       .  A
O860       Al868   1.875       .  S
O861        C870   1.261       .  A
O861       Al868   1.910       .  S
O862       Al868   1.865       .  S
O863        C870   1.265       .  A
O864       Al868   1.780       .  S
O865        C866   1.275       .  A
C866       C1024   1.482       .  S
C867       C1276   1.467       .  S
C870       C1048   1.489       .  S
C871        O872   1.265       .  A
C871       C1012   1.486       .  S
O873        C888   1.262       .  A
O873       Al881   1.904       .  S
C874        O884   1.261       .  A
C874       C1144   1.494       .  S
O875       Al877   1.915       .  S
O876        C878   1.267       .  A
O876       Al877   1.941       .  S
Al877       O885   1.954       .  S
Al877       O887   1.947       .  S
Al877       O886   1.783       .  S
C878        O891   1.261       .  A
C878       C1324   1.499       .  S
O879        C889   1.259       .  A
O879       Al881   1.894       .  S
O880        C893   1.269       .  A
O880       Al890   1.952       .  S
Al881       O894   1.897       .  S
Al881       O891   1.900       .  S
Al881       O886   1.769       .  S
O882        C889   1.253       .  A
O882       Al890   1.866       .  S
O883        C892   1.257       .  A
O883       Al890   1.877       .  S
O885        C892   1.268       .  A
O886       Al890   1.780       .  S
O887        C888   1.272       .  A
C888       C1033   1.485       .  S
C889       C1249   1.470       .  S
C892       C1000   1.478       .  S
C893        O894   1.263       .  A
C893        C988   1.506       .  S
O895        C910   1.262       .  A
O895       Al903   1.885       .  S
C896        O906   1.262       .  A
C896       C1309   1.497       .  S
O897       Al899   1.930       .  S
O898        C900   1.262       .  A
O898       Al899   1.920       .  S
Al899       O907   1.963       .  S
Al899       O909   1.944       .  S
Al899       O908   1.785       .  S
C900        O913   1.266       .  A
C900       C1081   1.511       .  S
O901        C911   1.258       .  A
O901       Al903   1.874       .  S
O902        C915   1.258       .  A
O902       Al912   1.913       .  S
Al903       O916   1.931       .  S
Al903       O913   1.936       .  S
Al903       O908   1.767       .  S
O904        C911   1.256       .  A
O904       Al912   1.872       .  S
O905        C914   1.256       .  A
O905       Al912   1.866       .  S
O907        C914   1.270       .  A
O908       Al912   1.782       .  S
O909        C910   1.275       .  A
C910        C976   1.479       .  S
C911       C1177   1.451       .  S
C914        C997   1.488       .  S
C915        O916   1.267       .  A
C915       C1021   1.483       .  S
O917        C932   1.261       .  A
O917       Al925   1.899       .  S
C918        O928   1.264       .  A
C918       O2311   1.266   1_455  A
C918       C1192   1.496       .  S
O919       C2310   1.267       .  A
O919       Al921   1.927       .  S
O920        C922   1.269       .  A
O920       Al921   1.945       .  S
Al921       O929   1.964       .  S
Al921       O931   1.951       .  S
Al921       O930   1.777       .  S
C922        O935   1.264       .  A
C922       C1261   1.509       .  S
O923        C933   1.257       .  A
O923       Al925   1.884       .  S
O924        C937   1.262       .  A
O924       Al934   1.913       .  S
Al925       O938   1.914       .  S
Al925       O935   1.916       .  S
Al925       O930   1.771       .  S
O926        C933   1.254       .  A
O926       Al934   1.875       .  S
O927        C936   1.256       .  A
O927       Al934   1.871       .  S
O928      Al2326   1.925   1_455  S
O929        C936   1.271       .  A
O930       Al934   1.776       .  S
O931        C932   1.273       .  A
C932       C1009   1.485       .  S
C933       C1096   1.467       .  S
Al934      O2320   1.909       .  S
C936        C964   1.489       .  S
C937        O938   1.269       .  A
C937        C973   1.489       .  S
O939        C954   1.261       .  A
O939       Al947   1.885       .  S
C940        O950   1.263       .  A
C940       O2333   1.264       .  A
C940       C1384   1.496       .  S
O941       C2332   1.268   1_455  A
O941       Al943   1.938       .  S
O942        C944   1.263       .  A
O942       Al943   1.925       .  S
Al943       O951   1.948       .  S
Al943       O953   1.954       .  S
Al943       O952   1.780       .  S
C944        O957   1.264       .  A
C944       C1240   1.503       .  S
O945        C955   1.258       .  A
O945       Al947   1.874       .  S
O946        C959   1.262       .  A
O946       Al956   1.927       .  S
Al947       O960   1.929       .  S
Al947       O957   1.916       .  S
Al947       O952   1.765       .  S
O948        C955   1.257       .  A
O948       Al956   1.876       .  S
O949        C958   1.259       .  A
O949       Al956   1.875       .  S
O950      Al2348   1.915       .  S
O951        C958   1.269       .  A
O952       Al956   1.782       .  S
O953        C954   1.275       .  A
C954        C985   1.484       .  S
C955       C1132   1.451       .  S
Al956      O2342   1.917   1_455  S
C958        C961   1.477       .  S
C959        O960   1.268       .  A
C959       C1057   1.488       .  S
C961        C962   1.398       .  A
C961       C2358   1.412   1_455  A
C962        C963   1.394       .  A
C962        H967   1.086       .  S
C963       C2356   1.422   1_455  A
C963        C970   1.446       .  S
C964       C2355   1.420       .  A
C964        C965   1.405       .  A
C965        C966   1.409       .  A
C965        H968   1.084       .  S
C966       C2353   1.413       .  A
C966        C969   1.444       .  S
C969        N971   1.157       .  T
C970        N972   1.157       .  T
C973        C974   1.398       .  A
C973        C978   1.422       .  A
C974        C975   1.397       .  A
C974        H979   1.085       .  S
C975        C976   1.413       .  A
C975        C982   1.434       .  S
C976        C977   1.401       .  A
C977        C978   1.407       .  A
C977        H980   1.085       .  S
C978        C981   1.444       .  S
C981        N983   1.157       .  T
C982        N984   1.153       .  T
C985        C986   1.401       .  A
C985        C990   1.408       .  A
C986        C987   1.398       .  A
C986        H991   1.084       .  S
C987        C988   1.419       .  A
C987        C994   1.442       .  S
C988        C989   1.416       .  A
C989        C990   1.415       .  A
C989        H992   1.084       .  S
C990        C993   1.442       .  S
C993        N995   1.157       .  T
C994        N996   1.156       .  T
C997        C998   1.409       .  A
C998        C999   1.409       .  A
C998       H1003   1.084       .  S
C999       C1006   1.443       .  S
C1000      C1001   1.397       .  A
C1001      C1002   1.396       .  A
C1001      H1004   1.085       .  S
C1002      C1005   1.446       .  S
C1005      N1007   1.157       .  T
C1006      N1008   1.157       .  T
C1009      C1010   1.408       .  A
C1009      C1014   1.411       .  A
C1010      C1011   1.405       .  A
C1010      H1015   1.084       .  S
C1011      C1012   1.407       .  A
C1011      C1018   1.443       .  S
C1012      C1013   1.407       .  A
C1013      C1014   1.409       .  A
C1013      H1016   1.085       .  S
C1014      C1017   1.442       .  S
C1017      N1019   1.157       .  T
C1018      N1020   1.157       .  T
C1021      C1022   1.402       .  A
C1021      C1026   1.409       .  A
C1022      C1023   1.402       .  A
C1022      H1027   1.086       .  S
C1023      C1024   1.412       .  A
C1023      C1030   1.442       .  S
C1024      C1025   1.410       .  A
C1025      C1026   1.409       .  A
C1025      H1028   1.084       .  S
C1026      C1029   1.442       .  S
C1029      N1031   1.158       .  T
C1030      N1032   1.157       .  T
C1033      C1034   1.409       .  A
C1033      C1038   1.410       .  A
C1034      C1035   1.410       .  A
C1034      H1039   1.085       .  S
C1035      C1036   1.408       .  A
C1035      C1042   1.444       .  S
C1036      C1037   1.405       .  A
C1037      C1038   1.405       .  A
C1037      H1040   1.084       .  S
C1038      C1041   1.443       .  S
C1041      N1043   1.157       .  T
C1042      N1044   1.157       .  T
C1045      C1046   1.403       .  A
C1045      C1050   1.416       .  A
C1046      C1047   1.407       .  A
C1046      H1051   1.085       .  S
C1047      C1048   1.416       .  A
C1047      C1054   1.444       .  S
C1048      C1049   1.403       .  A
C1049      C1050   1.406       .  A
C1049      H1052   1.085       .  S
C1050      C1053   1.444       .  S
C1053      N1055   1.157       .  T
C1054      N1056   1.157       .  T
C1057      C1058   1.407       .  A
C1057      C1062   1.407       .  A
C1058      C1059   1.409       .  A
C1058      H1063   1.085       .  S
C1059      C1060   1.413       .  A
C1059      C1066   1.444       .  S
C1060      C1061   1.410       .  A
C1061      C1062   1.405       .  A
C1061      H1064   1.085       .  S
C1062      C1065   1.443       .  S
C1065      N1067   1.157       .  T
C1066      N1068   1.157       .  T
C1069      C1070   1.413       .  A
C1069      C1074   1.410   1_556  A
C1070      C1071   1.415   1_556  A
C1070      H1075   1.085       .  S
C1071      C1072   1.416       .  A
C1071      C1078   1.443       .  S
C1072      C1073   1.413       .  A
C1073      C1074   1.403       .  A
C1073      H1076   1.085       .  S
C1074      C1077   1.444       .  S
C1077      N1079   1.157   1_554  T
C1078      N1080   1.157       .  T
C1081      C1082   1.407   1_554  A
C1081      C1086   1.422       .  A
C1082      C1083   1.412       .  A
C1082      H1087   1.084       .  S
C1083      C1084   1.422       .  A
C1083      C1090   1.443       .  S
C1084      C1085   1.406       .  A
C1085      C1086   1.408   1_556  A
C1085      H1088   1.084       .  S
C1086      C1089   1.444       .  S
C1089      N1091   1.157       .  T
C1090      N1092   1.157       .  T
C1093      C1094   1.406       .  A
C1093      C1098   1.412   1_455  A
C1094      C2487   1.387   1_556  A
C1094      H1099   1.085       .  S
C1095      C2486   1.388   1_554  A
C1095      C1096   1.411       .  A
C1095      C1102   1.445       .  S
C1096      C1097   1.404   1_554  A
C1097      C2490   1.391       .  A
C1097      H1100   1.085       .  S
C1098      C2489   1.396       .  A
C1098      C1101   1.445       .  S
C1101      N1103   1.157       .  T
C1102      N1104   1.157       .  T
C1105      C1106   1.398       .  A
C1105      C1110   1.412   1_455  A
C1106      C2499   1.395       .  A
C1106      H1111   1.086       .  S
C1107      C2498   1.395       .  A
C1107      C1108   1.419       .  A
C1107      C1114   1.445       .  S
C1108      C1109   1.410       .  A
C1109      C2502   1.413       .  A
C1109      H1112   1.084       .  S
C1110      C2501   1.407       .  A
C1110      C1113   1.443       .  S
C1113      N1115   1.157       .  T
C1114      N1116   1.157       .  T
C1117      C1118   1.410       .  A
C1117      C1122   1.413       .  A
C1118      C1119   1.405       .  A
C1118      H1123   1.085       .  S
C1119      C1120   1.416       .  A
C1119      C1126   1.444       .  S
C1120      C1121   1.414       .  A
C1121      C1122   1.409       .  A
C1121      H1124   1.084       .  S
C1122      C1125   1.444       .  S
C1125      N1127   1.157       .  T
C1126      N1128   1.157   1_455  T
C1129      C2522   1.402       .  A
C1129      C1134   1.408       .  A
C1130      C2521   1.403   1_455  A
C1130      C1131   1.387       .  A
C1130      H1135   1.085       .  S
C1131      C1132   1.407       .  A
C1131      C1138   1.446       .  S
C1132      C1133   1.401   1_455  A
C1133      C2526   1.389       .  A
C1133      H1136   1.085       .  S
C1134      C2525   1.395       .  A
C1134      C1137   1.445       .  S
C1137      N1139   1.157       .  T
C1138      N1140   1.157       .  T
C1141      C1142   1.411       .  A
C1141      C1146   1.420       .  A
C1142      C1143   1.409       .  A
C1142      H1147   1.084       .  S
C1143      C1144   1.414       .  A
C1143      C1150   1.443       .  S
C1144      C1145   1.405       .  A
C1145      C1146   1.404       .  A
C1145      H1148   1.085       .  S
C1146      C1149   1.444       .  S
C1149      N1151   1.157       .  T
C1150      N1152   1.157       .  T
C1153      C1154   1.409       .  A
C1153      C1158   1.410       .  A
C1154      C1155   1.404       .  A
C1154      H1159   1.085       .  S
C1155      C1156   1.410       .  A
C1155      C1162   1.445       .  S
C1156      C1157   1.408       .  A
C1157      C1158   1.409       .  A
C1157      H1160   1.085       .  S
C1158      C1161   1.441       .  S
C1161      N1163   1.157       .  T
C1162      N1164   1.157       .  T
C1165      C1166   1.411       .  A
C1165      C1170   1.416       .  A
C1166      C1167   1.407       .  A
C1166      H1171   1.085       .  S
C1167      C1168   1.417   1_556  A
C1167      C1174   1.444       .  S
C1168      C1169   1.410   1_554  A
C1169      C1170   1.405       .  A
C1169      H1172   1.084   1_556  S
C1170      C1173   1.444       .  S
C1173      N1175   1.157       .  T
C1174      N1176   1.157       .  T
C1177      C1178   1.398   1_554  A
C1178      C1179   1.387       .  A
C1178      H1183   1.086       .  S
C1179      C1186   1.445       .  S
C1180      C1181   1.399   1_556  A
C1181      C1182   1.388       .  A
C1181      H1184   1.085       .  S
C1182      C1185   1.445       .  S
C1185      N1187   1.157       .  T
C1186      N1188   1.157       .  T
C1189      C1190   1.410   1_556  A
C1189      C1194   1.421       .  A
C1190      C1191   1.409       .  A
C1190      H1195   1.084       .  S
C1191      C1192   1.415       .  A
C1191      C1198   1.444       .  S
C1192      C1193   1.404       .  A
C1193      C1194   1.405   1_554  A
C1193      H1196   1.085   1_455  S
C1194      C1197   1.444       .  S
C1197      N1199   1.157       .  T
C1198      N1200   1.157       .  T
C1201      C1202   1.406       .  A
C1201      C1206   1.420       .  A
C1202      C1203   1.415       .  A
C1202      H1207   1.085       .  S
C1203      C1204   1.424       .  A
C1203      C1210   1.443       .  S
C1204      C1205   1.406       .  A
C1205      C1206   1.408       .  A
C1205      H1208   1.085       .  S
C1206      C1209   1.444       .  S
C1209      N1211   1.157       .  T
C1210      N1212   1.157       .  T
C1213      C1214   1.404       .  A
C1213      C1218   1.422       .  A
C1214      C1215   1.406       .  A
C1214      H1219   1.081       .  S
C1215      C1216   1.409       .  A
C1215      C1222   1.444       .  S
C1216      C1217   1.399       .  A
C1217      C1218   1.403       .  A
C1217      H1220   1.086       .  S
C1218      C1221   1.445       .  S
C1221      N1223   1.157       .  T
C1222      N1224   1.157       .  T
C1225      C1226   1.407   1_565  A
C1225      C1230   1.410       .  A
C1226      H1231   1.084       .  S
C1227      C1228   1.413       .  A
C1227      C1234   1.442       .  S
C1228      C1229   1.407       .  A
C1229      H1232   1.085       .  S
C1230      C1233   1.447       .  S
C1233      N1235   1.158       .  T
C1234      N1236   1.157       .  T
C1237      C1238   1.405       .  A
C1237      C1242   1.414       .  A
C1238      C1239   1.405       .  A
C1238      H1243   1.085   1_565  S
C1239      C1240   1.421       .  A
C1239      C1246   1.444       .  S
C1240      C1241   1.408       .  A
C1241      C1242   1.406       .  A
C1241      H1244   1.084       .  S
C1242      C1245   1.443       .  S
C1245      N1247   1.157       .  T
C1246      N1248   1.157       .  T
C1249      C1250   1.405       .  A
C1250      C1251   1.392       .  A
C1250      H1255   1.085       .  S
C1251      C1258   1.444       .  S
C1252      C1253   1.406       .  A
C1253      C1254   1.390       .  A
C1253      H1256   1.085       .  S
C1254      C1257   1.441       .  S
C1257      N1259   1.156       .  T
C1258      N1260   1.157       .  T
C1261      C1262   1.412   1_554  A
C1261      C1266   1.420       .  A
C1262      C1263   1.410       .  A
C1262      H1267   1.084       .  S
C1263      C1264   1.413       .  A
C1263      C1270   1.444       .  S
C1264      C1265   1.407       .  A
C1265      C1266   1.407   1_556  A
C1265      H1268   1.085       .  S
C1266      C1269   1.444       .  S
C1269      N1271   1.157       .  T
C1270      N1272   1.157       .  T
C1273      C1274   1.404       .  A
C1273      C1278   1.401   1_556  A
C1274      C1275   1.395       .  A
C1274      H1279   1.085       .  S
C1275      C1276   1.411   1_556  A
C1275      C1282   1.443       .  S
C1276      C1277   1.407       .  A
C1277      C1278   1.382       .  A
C1277      H1280   1.085       .  S
C1278      C1281   1.442       .  S
C1281      N1283   1.156       .  T
C1282      N1284   1.157       .  T
C1285      C1286   1.407       .  A
C1285      C1290   1.410       .  A
C1286      C1287   1.412       .  A
C1286      H1291   1.084       .  S
C1287      C1288   1.411       .  A
C1287      C1294   1.442       .  S
C1288      C1289   1.403       .  A
C1289      C1290   1.398       .  A
C1289      H1292   1.086       .  S
C1290      C1293   1.443       .  S
C1293      N1295   1.156       .  T
C1294      N1296   1.157       .  T
C1297      C1298   1.416       .  A
C1297      C1302   1.417       .  A
C1298      C1299   1.410       .  A
C1298      H1303   1.084       .  S
C1299      C1300   1.406       .  A
C1299      C1306   1.443       .  S
C1300      C1301   1.406       .  A
C1301      C1302   1.400       .  A
C1301      H1304   1.086       .  S
C1302      C1305   1.445       .  S
C1305      N1307   1.157       .  T
C1306      N1308   1.157       .  T
C1309      C1310   1.407       .  A
C1309      C1314   1.415       .  A
C1310      C1311   1.408   1_554  A
C1310      H1315   1.085   1_565  S
C1311      C1312   1.421       .  A
C1311      C1318   1.444       .  S
C1312      C1313   1.406   1_556  A
C1313      C1314   1.404       .  A
C1313      H1316   1.080       .  S
C1314      C1317   1.444       .  S
C1317      N1319   1.157       .  T
C1318      N1320   1.158       .  T
C1321      C1322   1.410       .  A
C1321      C1326   1.418       .  A
C1322      C1323   1.403       .  A
C1322      H1327   1.084       .  S
C1323      C1324   1.415       .  A
C1323      C1330   1.444       .  S
C1324      C1325   1.408       .  A
C1325      C1326   1.410       .  A
C1325      H1328   1.085       .  S
C1326      C1329   1.443       .  S
C1329      N1331   1.157       .  T
C1330      N1332   1.157       .  T
C1333      C1334   1.405       .  A
C1333      C1338   1.416       .  A
C1334      C1335   1.390       .  A
C1334      H1339   1.085       .  S
C1335      C1336   1.406       .  A
C1335      C1342   1.445       .  S
C1336      C1337   1.396       .  A
C1337      C1338   1.381       .  A
C1337      H1340   1.086       .  S
C1338      C1341   1.446       .  S
C1341      N1343   1.157       .  T
C1342      N1344   1.157       .  T
C1345      C1346   1.401       .  A
C1345      C1350   1.411       .  A
C1346      C1347   1.405       .  A
C1346      H1351   1.085       .  S
C1347      C1348   1.416       .  A
C1347      C1354   1.442       .  S
C1348      C1349   1.404       .  A
C1349      C1350   1.404       .  A
C1349      H1352   1.085       .  S
C1350      C1353   1.442       .  S
C1353      N1355   1.156       .  T
C1354      N1356   1.156       .  T
C1357      C1358   1.408       .  A
C1357      C1362   1.416       .  A
C1358      C1359   1.395       .  A
C1358      H1363   1.085       .  S
C1359      C1360   1.409       .  A
C1359      C1366   1.447       .  S
C1360      C1361   1.405       .  A
C1361      C1362   1.410       .  A
C1361      H1364   1.085       .  S
C1362      C1365   1.443       .  S
C1365      N1367   1.157       .  T
C1366      N1368   1.157       .  T
C1369      C1370   1.405       .  A
C1369      C1374   1.405       .  A
C1370      C1371   1.398       .  A
C1370      H1375   1.085       .  S
C1371      C1372   1.417       .  A
C1371      C1378   1.444       .  S
C1372      C1373   1.418       .  A
C1373      C1374   1.412       .  A
C1373      H1376   1.084       .  S
C1374      C1377   1.442       .  S
C1377      N1379   1.157       .  T
C1378      N1380   1.157       .  T
C1381      C1382   1.404       .  A
C1381      C1386   1.416       .  A
C1382      C1383   1.400       .  A
C1382      H1387   1.085       .  S
C1383      C1384   1.416       .  A
C1383      C2782   1.441       .  S
C1384      C1385   1.410       .  A
C1385      C1386   1.404       .  A
C1385      H1388   1.085       .  S
C1386      C1389   1.444       .  S
C1389      N1391   1.157       .  T
C1390      C2775   1.443   1_455  S
C1390      N1392   1.157       .  T
O1393      C1408   1.265       .  A
O1393     Al1401   1.920       .  S
C1394      O1404   1.269       .  A
C1394      O1395   1.266       .  A
C1394      C2017   1.506       .  S
O1395     Al1397   1.921       .  S
O1396      C1398   1.255       .  A
O1396     Al1397   1.878       .  S
Al1397     O1405   1.875       .  S
Al1397     O1407   1.924       .  S
Al1397     O1406   1.778       .  S
C1398      O1411   1.258       .  A
C1398      C2032   1.457       .  S
O1399      C1409   1.261       .  A
O1399     Al1401   1.908       .  S
O1400      C1413   1.275       .  A
O1400     Al1410   1.953       .  S
Al1401     O1414   1.881       .  S
Al1401     O1411   1.871       .  S
Al1401     O1406   1.764       .  S
O1402      C1409   1.265       .  A
O1402     Al1410   1.931       .  S
O1403      C1412   1.266       .  A
O1403     Al1410   1.947       .  S
O1404     Al1410   1.931       .  S
O1405      C1412   1.257       .  A
O1406     Al1410   1.783       .  S
O1407      C1408   1.264       .  A
C1408      C2044   1.492       .  S
C1409      C2077   1.498       .  S
C1412      C2056   1.473       .  S
C1413      O1414   1.261       .  A
C1413      C2065   1.479       .  S
O1415      C1430   1.264       .  A
O1415     Al1423   1.914       .  S
C1416      O1426   1.268       .  A
C1416      O1417   1.267       .  A
C1416      C1960   1.496       .  S
O1417     Al1419   1.920       .  S
O1418      C1420   1.251       .  A
O1418     Al1419   1.869       .  S
Al1419     O1427   1.876       .  S
Al1419     O1429   1.939       .  S
Al1419     O1428   1.780       .  S
C1420      O1433   1.256       .  A
C1420      C1969   1.453       .  S
O1421      C1431   1.263       .  A
O1421     Al1423   1.921       .  S
O1422      C1435   1.275       .  A
O1422     Al1432   1.940       .  S
Al1423     O1436   1.885       .  S
Al1423     O1433   1.868       .  S
Al1423     O1428   1.761       .  S
O1424      C1431   1.263       .  A
O1424     Al1432   1.932       .  S
O1425      C1434   1.266       .  A
O1425     Al1432   1.944       .  S
O1426     Al1432   1.921       .  S
O1427      C1434   1.258       .  A
O1428     Al1432   1.784       .  S
O1429      C1430   1.266       .  A
C1430      C1981   1.488       .  S
C1431      C2008   1.506       .  S
C1434      C2053   1.485       .  S
C1435      O1436   1.264       .  A
C1435      C1996   1.477       .  S
O1437      C1452   1.268       .  A
O1437     Al1445   1.934       .  S
C1438      O2144   1.259       .  A
C1438      O1439   1.258       .  A
C1438      C1933   1.491       .  S
O1439     Al2137   1.916       .  S
O1440      C1442   1.256       .  A
O1440     Al1441   1.874       .  S
Al1441     O2135   1.913   1_545  S
Al1441     O1449   1.865       .  S
Al1441     O1451   1.915       .  S
Al1441     O1450   1.778       .  S
C1442      O1455   1.259       .  A
C1442      C1948   1.468       .  S
O1443      C1453   1.265       .  A
O1443     Al1445   1.918       .  S
O1444      C1457   1.272       .  A
O1444     Al1454   1.944       .  S
Al1445     O1458   1.875       .  S
Al1445     O1455   1.884       .  S
Al1445     O1450   1.774       .  S
O1446      C1453   1.264       .  A
O1446     Al1454   1.928       .  S
O1447      C1456   1.273       .  A
O1447     Al1454   1.967       .  S
O1448      C2134   1.264   1_545  A
O1448     Al1454   1.930       .  S
O1449      C1456   1.259       .  A
O1450     Al1454   1.786       .  S
O1451      C1452   1.261       .  A
C1452      C1909   1.496       .  S
C1453      C1900   1.506       .  S
C1456      C1924   1.494       .  S
C1457      O1458   1.258       .  A
C1457      C2041   1.476       .  S
O1459      C1474   1.267       .  A
O1459     Al1467   1.915       .  S
C1460      O2166   1.268   1_545  A
C1460      O1461   1.266       .  A
C1460      C1861   1.511       .  S
O1461     Al2159   1.924   1_545  S
O1462      C1464   1.254       .  A
O1462     Al1463   1.866       .  S
Al1463     O2157   1.925       .  S
Al1463     O1471   1.883       .  S
Al1463     O1473   1.911       .  S
Al1463     O1472   1.774       .  S
C1464      O1477   1.255       .  A
C1464      C1876   1.454       .  S
O1465      C1475   1.266       .  A
O1465     Al1467   1.918       .  S
O1466      C1479   1.275       .  A
O1466     Al1476   1.957       .  S
Al1467     O1480   1.888       .  S
Al1467     O1477   1.877       .  S
Al1467     O1472   1.776       .  S
O1468      C1475   1.265       .  A
O1468     Al1476   1.933       .  S
O1469      C1478   1.264       .  A
O1469     Al1476   1.941       .  S
O1470      C2156   1.272       .  A
O1470     Al1476   1.937       .  S
O1471      C1478   1.256       .  A
O1472     Al1476   1.774       .  S
O1473      C1474   1.263       .  A
C1474      C1993   1.498       .  S
C1475      C1885   1.506       .  S
C1478      C1921   1.475       .  S
C1479      O1480   1.259       .  A
C1479      C1852   1.478       .  S
O1481      C1496   1.266       .  A
O1481     Al1489   1.917       .  S
C1482      O1483   1.264       .  A
C1482      C1816   1.505       .  S
O1484      C1486   1.255       .  A
O1484     Al1485   1.864       .  S
Al1485     O1493   1.873       .  S
Al1485     O1495   1.915       .  S
Al1485     O1494   1.777       .  S
C1486      O1499   1.255       .  A
C1486      C1825   1.459       .  S
O1487      C1497   1.266       .  A
O1487     Al1489   1.924       .  S
O1488      C1501   1.273       .  A
O1488     Al1498   1.945       .  S
Al1489     O1502   1.884       .  S
Al1489     O1499   1.885       .  S
Al1489     O1494   1.775       .  S
O1490      C1497   1.263       .  A
O1490     Al1498   1.926       .  S
O1491      C1500   1.267       .  A
O1491     Al1498   1.954       .  S
O1492     Al1498   1.933       .  S
O1493      C1500   1.255       .  A
O1494     Al1498   1.782       .  S
O1495      C1496   1.263       .  A
C1496      C2068   1.500       .  S
C1497      C1837   1.507       .  S
C1500      C1804   1.486       .  S
C1501      O1502   1.260       .  A
C1501      C1912   1.474       .  S
O1503      C1518   1.267       .  A
O1503     Al1511   1.932       .  S
C1504      O1505   1.261       .  A
C1504      C1780   1.495       .  S
O1506      C1508   1.259       .  A
O1506     Al1507   1.886       .  S
Al1507     O1515   1.878       .  S
Al1507     O1517   1.916       .  S
Al1507     O1516   1.788       .  S
C1508      O1521   1.259       .  A
C1508      C1789   1.452       .  S
O1509      C1519   1.266       .  A
O1509     Al1511   1.924       .  S
O1510      C1523   1.273       .  A
O1510     Al1520   1.950       .  S
Al1511     O1524   1.875       .  S
Al1511     O1521   1.892       .  S
Al1511     O1516   1.778       .  S
O1512      C1519   1.262       .  A
O1512     Al1520   1.913       .  S
O1513      C1522   1.271       .  A
O1513     Al1520   1.959       .  S
O1514     Al1520   1.927       .  S
O1515      C1522   1.260       .  A
O1516     Al1520   1.790       .  S
O1517      C1518   1.261       .  A
C1518      C1849   1.497       .  S
C1519      C1765   1.500       .  S
C1522      C1801   1.481       .  S
C1523      O1524   1.257       .  A
C1523      C1984   1.481       .  S
O1525      C1540   1.254       .  A
O1525     Al1533   1.850       .  S
C1526      O1536   1.255       .  A
C1526      O1527   1.279       .  A
C1526      C1897   1.495       .  S
O1527     Al1529   1.977       .  S
O1528      C1530   1.254       .  A
O1528     Al1529   1.885       .  S
Al1529     O1537   1.927       .  S
Al1529     O1539   1.988       .  S
Al1529     O1538   1.782       .  S
C1530      O1543   1.265       .  A
C1530      C1813   1.502       .  S
O1531      C1541   1.260       .  A
O1531     Al1533   1.880       .  S
O1532      C1545   1.266       .  A
O1532     Al1542   1.912       .  S
Al1533     O1546   1.926       .  S
Al1533     O1543   1.945       .  S
Al1533     O1538   1.773       .  S
O1534      C1541   1.257       .  A
O1534     Al1542   1.890       .  S
O1535      C1544   1.256       .  A
O1535     Al1542   1.894       .  S
O1536     Al1542   1.851       .  S
O1537      C1544   1.262       .  A
O1538     Al1542   1.788       .  S
O1539      C1540   1.279       .  A
C1540      C1756   1.486       .  S
C1541      C2029   1.466       .  S
C1544      C1741   1.488       .  S
C1545      O1546   1.267       .  A
C1545      C1732   1.475       .  S
O1547      C1562   1.251       .  A
O1547     Al1555   1.853       .  S
C1548      O1558   1.259       .  A
C1548      O1549   1.275       .  A
C1548      C1768   1.502       .  S
O1549     Al1551   1.968       .  S
O1550      C1552   1.256       .  A
O1550     Al1551   1.888       .  S
Al1551     O1559   1.918       .  S
Al1551     O1561   1.967       .  S
Al1551     O1560   1.785       .  S
C1552      O1565   1.271       .  A
C1552      C1864   1.511   1_554  S
O1553      C1563   1.259       .  A
O1553     Al1555   1.885       .  S
O1554      C1567   1.269       .  A
O1554     Al1564   1.918       .  S
Al1555     O1568   1.939       .  S
Al1555     O1565   1.969       .  S
Al1555     O1560   1.780       .  S
O1556      C1563   1.255       .  A
O1556     Al1564   1.865       .  S
O1557      C1566   1.258       .  A
O1557     Al1564   1.906       .  S
O1558     Al1564   1.873       .  S
O1559      C1566   1.261       .  A
O1560     Al1564   1.787       .  S
O1561      C1562   1.272       .  A
C1562      C1720   1.474       .  S
C1563      C1972   1.461       .  S
C1566      C1744   1.482       .  S
C1567      O1568   1.270       .  A
C1567      C1708   1.489       .  S
O1569      C1584   1.262       .  A
O1569     Al1577   1.899       .  S
C1570      O1580   1.262   1_565  A
C1570      O2267   1.264       .  A
C1570      C1840   1.502   1_565  S
O1571      C2266   1.263       .  A
O1571     Al1573   1.911       .  S
O1572      C1574   1.267       .  A
O1572     Al1573   1.936       .  S
Al1573     O1581   1.957       .  S
Al1573     O1583   1.934       .  S
Al1573     O1582   1.783       .  S
C1574      O1587   1.263       .  A
C1574      C2020   1.505       .  S
O1575      C1585   1.260       .  A
O1575     Al1577   1.893       .  S
O1576      C1589   1.264       .  A
O1576     Al1586   1.918       .  S
Al1577     O1590   1.923       .  S
Al1577     O1587   1.915       .  S
Al1577     O1582   1.777       .  S
O1578      C1585   1.255       .  A
O1578     Al1586   1.866       .  S
O1579      C1588   1.255       .  A
O1579     Al1586   1.868       .  S
O1580     Al2282   1.920   1_545  S
O1581      C1588   1.269       .  A
O1582     Al1586   1.778       .  S
O1583      C1584   1.268       .  A
C1584      C1729   1.477       .  S
C1585      C1945   1.469       .  S
Al1586     O2276   1.929       .  S
C1588      C1696   1.477       .  S
C1589      O1590   1.268       .  A
C1589      C1684   1.495       .  S
O1591      C1606   1.261       .  A
O1591     Al1599   1.888       .  S
C1592      O1602   1.262       .  A
C1592      O2289   1.267       .  A
C1592      C2005   1.495       .  S
O1593      C2288   1.264   1_545  A
O1593     Al1595   1.921       .  S
O1594      C1596   1.261       .  A
O1594     Al1595   1.910       .  S
Al1595     O1603   1.950       .  S
Al1595     O1605   1.943       .  S
Al1595     O1604   1.785       .  S
C1596      O1609   1.264       .  A
C1596      C1777   1.502       .  S
O1597      C1607   1.258       .  A
O1597     Al1599   1.875       .  S
O1598      C1611   1.260       .  A
O1598     Al1608   1.911       .  S
Al1599     O1612   1.926       .  S
Al1599     O1609   1.925       .  S
Al1599     O1604   1.768       .  S
O1600      C1607   1.258   1_565  A
O1600     Al1608   1.890   1_565  S
O1601      C1610   1.258       .  A
O1601     Al1608   1.872       .  S
O1602     Al2304   1.915       .  S
O1603      C1610   1.268       .  A
O1604     Al1608   1.783       .  S
O1605      C1606   1.273       .  A
C1606      C1672   1.479       .  S
C1607      C1873   1.470       .  S
Al1608     O2298   1.914   1_545  S
C1610      C1693   1.482       .  S
C1611      O1612   1.268       .  A
C1611      C1717   1.477       .  S
O1613      C1628   1.256       .  A
O1613     Al1621   1.881       .  S
C1614      O1624   1.264       .  A
C1614      C1888   1.501       .  S
O1615     Al1617   1.925       .  S
O1616      C1618   1.270       .  A
O1616     Al1617   1.947       .  S
Al1617     O1625   1.964       .  S
Al1617     O1627   1.953       .  S
Al1617     O1626   1.781       .  S
C1618      O1631   1.261       .  A
C1618      C1957   1.502       .  S
O1619      C1629   1.255       .  A
O1619     Al1621   1.864       .  S
O1620      C1633   1.264       .  A
O1620     Al1630   1.924       .  S
Al1621     O1634   1.917       .  S
Al1621     O1631   1.892       .  S
Al1621     O1626   1.770       .  S
O1622      C1629   1.257       .  A
O1622     Al1630   1.887       .  S
O1623      C1632   1.254       .  A
O1623     Al1630   1.857       .  S
O1625      C1632   1.272       .  A
O1626     Al1630   1.778       .  S
O1627      C1628   1.271       .  A
C1628      C1705   1.483       .  S
C1629      C1792   1.458       .  S
C1632      C1660   1.497       .  S
C1633      O1634   1.268       .  A
C1633      C1669   1.492       .  S
O1635      C1650   1.261       .  A
O1635     Al1643   1.887       .  S
C1636      O1646   1.260   1_455  A
C1636      C2080   1.500   1_455  S
O1637     Al1639   1.923       .  S
O1638      C1640   1.263       .  A
O1638     Al1639   1.921       .  S
Al1639     O1647   1.949       .  S
Al1639     O1649   1.939       .  S
Al1639     O1648   1.782       .  S
C1640      O1653   1.264       .  A
C1640      C1936   1.503       .  S
O1641      C1651   1.257       .  A
O1641     Al1643   1.876       .  S
O1642      C1655   1.262       .  A
O1642     Al1652   1.923       .  S
Al1643     O1656   1.928       .  S
Al1643     O1653   1.921       .  S
Al1643     O1648   1.768       .  S
O1644      C1651   1.258       .  A
O1644     Al1652   1.883       .  S
O1645      C1654   1.260       .  A
O1645     Al1652   1.885       .  S
O1647      C1654   1.269       .  A
O1648     Al1652   1.781       .  S
O1649      C1650   1.272       .  A
C1650      C1681   1.474       .  S
C1651      C1828   1.459       .  S
C1654      C1657   1.481       .  S
C1655      O1656   1.268       .  A
C1655      C1753   1.487       .  S
C1657      C1658   1.399       .  A
C1658      C1659   1.397       .  A
C1658      H1663   1.086       .  S
C1659      C1666   1.445       .  S
C1660      C1661   1.410       .  A
C1661      C1662   1.410   1_655  A
C1661      H1664   1.084       .  S
C1662      C1665   1.443   1_455  S
C1665      N1667   1.157       .  T
C1666      N1668   1.157       .  T
C1669      C1670   1.401       .  A
C1669      C1674   1.421       .  A
C1670      C1671   1.401       .  A
C1670      H1675   1.085       .  S
C1671      C1672   1.411       .  A
C1671      C1678   1.437       .  S
C1672      C1673   1.403       .  A
C1673      C1674   1.408       .  A
C1673      H1676   1.085       .  S
C1674      C1677   1.445       .  S
C1677      N1679   1.158   1_655  T
C1678      N1680   1.154       .  T
C1681      C1682   1.402       .  A
C1681      C1686   1.407       .  A
C1682      C1683   1.401       .  A
C1682      H1687   1.082       .  S
C1683      C1684   1.411       .  A
C1683      C1690   1.437       .  S
C1684      C1685   1.412       .  A
C1685      C1686   1.405       .  A
C1685      H1688   1.085       .  S
C1686      C1689   1.442       .  S
C1689      N1691   1.157       .  T
C1690      N1692   1.155       .  T
C1693      C1694   1.407       .  A
C1693      C2394   1.416   1_545  A
C1694      C1695   1.408       .  A
C1694      H1699   1.084       .  S
C1695      C2392   1.410   1_545  A
C1695      C1702   1.443       .  S
C1696      C2391   1.412       .  A
C1696      C1697   1.397       .  A
C1697      C1698   1.396       .  A
C1697      H1700   1.086       .  S
C1698      C2389   1.421       .  A
C1698      C1701   1.446       .  S
C1701      N1703   1.158       .  T
C1702      N1704   1.157       .  T
C1705      C1706   1.408       .  A
C1705      C1710   1.410       .  A
C1706      C1707   1.406       .  A
C1706      H1711   1.085       .  S
C1707      C1708   1.408       .  A
C1707      C1714   1.443       .  S
C1708      C1709   1.409       .  A
C1709      C1710   1.410       .  A
C1709      H1712   1.085       .  S
C1710      C1713   1.444       .  S
C1713      N1715   1.157       .  T
C1714      N1716   1.157       .  T
C1717      C1718   1.401       .  A
C1717      C1722   1.407       .  A
C1718      C1719   1.398       .  A
C1718      H1723   1.086       .  S
C1719      C1720   1.410       .  A
C1719      C1726   1.442       .  S
C1720      C1721   1.409       .  A
C1721      C1722   1.408       .  A
C1721      H1724   1.084       .  S
C1722      C1725   1.441       .  S
C1725      N1727   1.157       .  T
C1726      N1728   1.156       .  T
C1729      C1730   1.409       .  A
C1729      C1734   1.409       .  A
C1730      C1731   1.410       .  A
C1730      H1735   1.084       .  S
C1731      C1732   1.404       .  A
C1731      C1738   1.443       .  S
C1732      C1733   1.402       .  A
C1733      C1734   1.398       .  A
C1733      H1736   1.082       .  S
C1734      C1737   1.445       .  S
C1737      N1739   1.157       .  T
C1738      N1740   1.157       .  T
C1741      C1742   1.404       .  A
C1741      C1746   1.418       .  A
C1742      C1743   1.406       .  A
C1742      H1747   1.085       .  S
C1743      C1744   1.415       .  A
C1743      C1750   1.444       .  S
C1744      C1745   1.400       .  A
C1745      C1746   1.402       .  A
C1745      H1748   1.085       .  S
C1746      C1749   1.444       .  S
C1749      N1751   1.157       .  T
C1750      N1752   1.157       .  T
C1753      C1754   1.407       .  A
C1753      C1758   1.407       .  A
C1754      C1755   1.408       .  A
C1754      H1759   1.085       .  S
C1755      C1756   1.413       .  A
C1755      C1762   1.444       .  S
C1756      C1757   1.410       .  A
C1757      C1758   1.405       .  A
C1757      H1760   1.085       .  S
C1758      C1761   1.442       .  S
C1761      N1763   1.157       .  T
C1762      N1764   1.157       .  T
C1765      C1766   1.411       .  A
C1765      C1770   1.413   1_556  A
C1766      C1767   1.410   1_556  A
C1766      H1771   1.085       .  S
C1767      C1768   1.415       .  A
C1767      C1774   1.443       .  S
C1768      C1769   1.411       .  A
C1769      C1770   1.405       .  A
C1769      H1772   1.085       .  S
C1770      C1773   1.444       .  S
C1773      N1775   1.157       .  T
C1774      N1776   1.157       .  T
C1777      C1778   1.410   1_554  A
C1777      C1782   1.421       .  A
C1778      C1779   1.410       .  A
C1778      H1783   1.084       .  S
C1779      C1780   1.416       .  A
C1779      C1786   1.443       .  S
C1780      C1781   1.404       .  A
C1781      C1782   1.400   1_556  A
C1781      H1784   1.085   1_655  S
C1782      C1785   1.445       .  S
C1785      N1787   1.157       .  T
C1786      N1788   1.157       .  T
C1789      C1790   1.401       .  A
C1789      C1794   1.404       .  A
C1790      H1795   1.085       .  S
C1791      C1792   1.404   1_456  A
C1791      C1798   1.440       .  S
C1792      C1793   1.404       .  A
C1793      H1796   1.085       .  S
C1794      C1797   1.442   1_556  S
C1797      N1799   1.156       .  T
C1798      N1800   1.155       .  T
C1801      C1802   1.399       .  A
C1801      C1806   1.414       .  A
C1802      H1807   1.086       .  S
C1803      C1804   1.416   1_455  A
C1803      C1810   1.445       .  S
C1804      C1805   1.408       .  A
C1805      H1808   1.084       .  S
C1806      C1809   1.443       .  S
C1809      N1811   1.157       .  T
C1810      N1812   1.157       .  T
C1813      C1814   1.410       .  A
C1813      C1818   1.413       .  A
C1814      C1815   1.406       .  A
C1814      H1819   1.085       .  S
C1815      C1816   1.417       .  A
C1815      C1822   1.444       .  S
C1816      C1817   1.413       .  A
C1817      C1818   1.408       .  A
C1817      H1820   1.084       .  S
C1818      C1821   1.444       .  S
C1821      N1823   1.157       .  T
C1822      N1824   1.157       .  T
C1825      C1830   1.415       .  A
C1826      C1827   1.388       .  A
C1826      H1831   1.085       .  S
C1827      C1828   1.410       .  A
C1827      C1834   1.446       .  S
C1828      C1829   1.402       .  A
C1829      H1832   1.085       .  S
C1830      C1833   1.446       .  S
C1833      N1835   1.158       .  T
C1834      N1836   1.157       .  T
C1837      C1838   1.408       .  A
C1837      C1842   1.423       .  A
C1838      C1839   1.408       .  A
C1838      H1843   1.084       .  S
C1839      C1840   1.418       .  A
C1839      C1846   1.444       .  S
C1840      C1841   1.406       .  A
C1841      C1842   1.407       .  A
C1841      H1844   1.085   1_545  S
C1842      C1845   1.445       .  S
C1845      N1847   1.158       .  T
C1846      N1848   1.157       .  T
C1849      C1850   1.411       .  A
C1849      C1854   1.411       .  A
C1850      C1851   1.406       .  A
C1850      H1855   1.085       .  S
C1851      C1852   1.408       .  A
C1851      C1858   1.443       .  S
C1852      C1853   1.407       .  A
C1853      C1854   1.407       .  A
C1853      H1856   1.085       .  S
C1854      C1857   1.441       .  S
C1857      N1859   1.156       .  T
C1858      N1860   1.157       .  T
C1861      C1862   1.413       .  A
C1861      C1866   1.417       .  A
C1862      C1863   1.412       .  A
C1862      H1867   1.084       .  S
C1863      C1864   1.414       .  A
C1863      C1870   1.440       .  S
C1864      C1865   1.411       .  A
C1865      C1866   1.408       .  A
C1865      H1868   1.083   1_556  S
C1866      C1869   1.443       .  S
C1869      N1871   1.157   1_545  T
C1870      N1872   1.156       .  T
C1873      C1874   1.403   1_554  A
C1873      C2574   1.412   1_545  A
C1874      C1875   1.388       .  A
C1874      H1879   1.086       .  S
C1875      C2572   1.415   1_545  A
C1875      C1882   1.445       .  S
C1876      C2571   1.412       .  A
C1876      C1877   1.402       .  A
C1877      C1878   1.389   1_556  A
C1877      H1880   1.086   1_556  S
C1878      C2569   1.409       .  A
C1878      C1881   1.445       .  S
C1881      N1883   1.157       .  T
C1882      N1884   1.157       .  T
C1885      C1886   1.408   1_556  A
C1885      C1890   1.422       .  A
C1886      C1887   1.406       .  A
C1886      H1891   1.084       .  S
C1887      C1888   1.418       .  A
C1887      C1894   1.444       .  S
C1888      C1889   1.406       .  A
C1889      C1890   1.408   1_554  A
C1889      H1892   1.085       .  S
C1890      C1893   1.444       .  S
C1893      N1895   1.157       .  T
C1894      N1896   1.157       .  T
C1897      C1898   1.404       .  A
C1897      C1902   1.419       .  A
C1898      C1899   1.411       .  A
C1898      H1903   1.085       .  S
C1899      C1900   1.423       .  A
C1899      C1906   1.443       .  S
C1900      C1901   1.405       .  A
C1901      C1902   1.404       .  A
C1901      H1904   1.085       .  S
C1902      C1905   1.445       .  S
C1905      N1907   1.157       .  T
C1906      N1908   1.157       .  T
C1909      C1910   1.404       .  A
C1909      C1914   1.420       .  A
C1910      C1911   1.407       .  A
C1910      H1915   1.080       .  S
C1911      C1912   1.410       .  A
C1911      C1918   1.444       .  S
C1912      C1913   1.400       .  A
C1913      C1914   1.404       .  A
C1913      H1916   1.086       .  S
C1914      C1917   1.443       .  S
C1917      N1919   1.157   1_545  T
C1918      N1920   1.157       .  T
C1921      C1922   1.406       .  A
C1921      C1926   1.408       .  A
C1922      C2619   1.407       .  A
C1922      H1927   1.085       .  S
C1923      C2618   1.411   1_545  A
C1923      C1924   1.415       .  A
C1923      C1930   1.442       .  S
C1924      C1925   1.409   1_545  A
C1925      C2622   1.395       .  A
C1925      H1928   1.085       .  S
C1926      C2621   1.397       .  A
C1926      C1929   1.445       .  S
C1929      N1931   1.157       .  T
C1930      N1932   1.157       .  T
C1933      C1934   1.403       .  A
C1933      C1938   1.413       .  A
C1934      C1935   1.402       .  A
C1934      H1939   1.085       .  S
C1935      C1936   1.422       .  A
C1935      C1942   1.444       .  S
C1936      C1937   1.410       .  A
C1937      C1938   1.408       .  A
C1937      H1940   1.084       .  S
C1938      C1941   1.444       .  S
C1941      N1943   1.157       .  T
C1942      N1944   1.157       .  T
C1945      C1946   1.405       .  A
C1945      C2646   1.412       .  A
C1946      C1947   1.391       .  A
C1946      H1951   1.085       .  S
C1947      C2644   1.412       .  A
C1947      C1954   1.444       .  S
C1948      C2643   1.412   1_545  A
C1948      C1949   1.405       .  A
C1949      C1950   1.391       .  A
C1949      H1952   1.085       .  S
C1950      C2641   1.413   1_545  A
C1950      C1953   1.445       .  S
C1953      N1955   1.157       .  T
C1954      N1956   1.157       .  T
C1957      C1958   1.410   1_554  A
C1957      C1962   1.417       .  A
C1958      C1959   1.404       .  A
C1958      H1963   1.084       .  S
C1959      C1960   1.413       .  A
C1959      C1966   1.444       .  S
C1960      C1961   1.409       .  A
C1961      C1962   1.407   1_556  A
C1961      H1964   1.085       .  S
C1962      C1965   1.443       .  S
C1965      N1967   1.157       .  T
C1966      N1968   1.157       .  T
C1969      C1970   1.402       .  A
C1969      C1974   1.406   1_556  A
C1970      C1971   1.393   1_556  A
C1970      H1975   1.085       .  S
C1971      C1972   1.410       .  A
C1971      C1978   1.442       .  S
C1972      C1973   1.404       .  A
C1973      C1974   1.379       .  A
C1973      H1976   1.085       .  S
C1974      C1977   1.445       .  S
C1977      N1979   1.157       .  T
C1978      N1980   1.157   1_554  T
C1981      C1982   1.407       .  A
C1981      C1986   1.411       .  A
C1982      C1983   1.412       .  A
C1982      H1987   1.084       .  S
C1983      C1984   1.410       .  A
C1983      C1990   1.441       .  S
C1984      C1985   1.405       .  A
C1985      C1986   1.404       .  A
C1985      H1988   1.086       .  S
C1986      C1989   1.443       .  S
C1989      N1991   1.157       .  T
C1990      N1992   1.157       .  T
C1993      C1994   1.417       .  A
C1993      C1998   1.416       .  A
C1994      C1995   1.407       .  A
C1994      H1999   1.084       .  S
C1995      C1996   1.403       .  A
C1995      C2002   1.443       .  S
C1996      C1997   1.405       .  A
C1997      C1998   1.398       .  A
C1997      H2000   1.086       .  S
C1998      C2001   1.444       .  S
C2001      N2003   1.157       .  T
C2002      N2004   1.157       .  T
C2005      C2006   1.406       .  A
C2005      C2010   1.413       .  A
C2006      C2007   1.407   1_554  A
C2006      H2011   1.085       .  S
C2007      C2008   1.421       .  A
C2007      C2014   1.444       .  S
C2008      C2009   1.408   1_556  A
C2009      C2010   1.406       .  A
C2009      H2012   1.081       .  S
C2010      C2013   1.444       .  S
C2013      N2015   1.157       .  T
C2014      N2016   1.157       .  T
C2017      C2018   1.411       .  A
C2017      C2022   1.416       .  A
C2018      C2019   1.407       .  A
C2018      H2023   1.084       .  S
C2019      C2020   1.417       .  A
C2019      C2026   1.444       .  S
C2020      C2021   1.410       .  A
C2021      C2022   1.409       .  A
C2021      H2024   1.084       .  S
C2022      C2025   1.442       .  S
C2025      N2027   1.157       .  T
C2026      N2028   1.157       .  T
C2029      C2030   1.405       .  A
C2029      C2034   1.416       .  A
C2030      C2031   1.392       .  A
C2030      H2035   1.084       .  S
C2031      C2032   1.408       .  A
C2031      C2038   1.444       .  S
C2032      C2033   1.399       .  A
C2033      C2034   1.385       .  A
C2033      H2036   1.085       .  S
C2034      C2037   1.446       .  S
C2037      N2039   1.158       .  T
C2038      N2040   1.157       .  T
C2041      C2042   1.400       .  A
C2041      C2046   1.411       .  A
C2042      C2043   1.405       .  A
C2042      H2047   1.085       .  S
C2043      C2044   1.418       .  A
C2043      C2050   1.441       .  S
C2044      C2045   1.404       .  A
C2045      C2046   1.405       .  A
C2045      H2048   1.084       .  S
C2046      C2049   1.441       .  S
C2049      N2051   1.156       .  T
C2050      N2052   1.156       .  T
C2053      C2054   1.406       .  A
C2053      C2058   1.415       .  A
C2054      C2055   1.395       .  A
C2054      H2059   1.085       .  S
C2055      C2056   1.406       .  A
C2055      C2062   1.446       .  S
C2056      C2057   1.405       .  A
C2057      C2058   1.407       .  A
C2057      H2060   1.085       .  S
C2058      C2061   1.444       .  S
C2061      N2063   1.157       .  T
C2062      N2064   1.157       .  T
C2065      C2066   1.404       .  A
C2065      C2070   1.404       .  A
C2066      C2067   1.398       .  A
C2066      H2071   1.084       .  S
C2067      C2068   1.416       .  A
C2067      C2074   1.443       .  S
C2068      C2069   1.417       .  A
C2069      C2070   1.409       .  A
C2069      H2072   1.084       .  S
C2070      C2073   1.442       .  S
C2073      N2075   1.157       .  T
C2074      N2076   1.157       .  T
C2077      C2078   1.409       .  A
C2077      C2082   1.415       .  A
C2078      C2079   1.406       .  A
C2078      H2083   1.084       .  S
C2079      C2080   1.415       .  A
C2080      C2081   1.410       .  A
C2081      C2082   1.403       .  A
C2081      H2084   1.084       .  S
C2082      C2085   1.444       .  S
C2085      N2087   1.157       .  T
C2086      N2088   1.157       .  T
O2089      C2104   1.264       .  A
O2089     Al2097   1.909       .  S
C2090      O2100   1.266       .  A
C2090      O2091   1.263       .  A
C2090      C2713   1.502       .  S
O2091     Al2093   1.914       .  S
O2092      C2094   1.252       .  A
O2092     Al2093   1.871       .  S
Al2093     O2101   1.861       .  S
Al2093     O2103   1.930       .  S
Al2093     O2102   1.786       .  S
C2094      O2107   1.258       .  A
C2094      C2728   1.450       .  S
O2095      C2105   1.263       .  A
O2095     Al2097   1.915       .  S
O2096      C2109   1.274       .  A
O2096     Al2106   1.953       .  S
Al2097     O2110   1.880       .  S
Al2097     O2107   1.871       .  S
Al2097     O2102   1.762       .  S
O2098      C2105   1.267       .  A
O2098     Al2106   1.939       .  S
O2099      C2108   1.270       .  A
O2099     Al2106   1.961       .  S
O2100     Al2106   1.924       .  S
O2101      C2108   1.256       .  A
O2102     Al2106   1.782       .  S
O2103      C2104   1.264       .  A
C2104      C2740   1.487       .  S
C2105      C2773   1.506       .  S
C2108      C2752   1.482       .  S
C2109      O2110   1.260       .  A
C2109      C2761   1.482       .  S
O2111      C2126   1.264       .  A
O2111     Al2119   1.918       .  S
C2112      O2122   1.266       .  A
C2112      O2113   1.265       .  A
C2112      C2656   1.496       .  S
O2113     Al2115   1.919       .  S
O2114      C2116   1.251       .  A
O2114     Al2115   1.861       .  S
Al2115     O2123   1.868       .  S
Al2115     O2125   1.933       .  S
Al2115     O2124   1.775       .  S
C2116      O2129   1.260       .  A
C2116      C2665   1.453       .  S
O2117      C2127   1.263       .  A
O2117     Al2119   1.920       .  S
O2118      C2131   1.274       .  A
O2118     Al2128   1.931       .  S
Al2119     O2132   1.890       .  S
Al2119     O2129   1.888       .  S
Al2119     O2124   1.762       .  S
O2120      C2127   1.264       .  A
O2120     Al2128   1.930       .  S
O2121      C2130   1.270       .  A
O2121     Al2128   1.963       .  S
O2122     Al2128   1.918       .  S
O2123      C2130   1.257       .  A
O2124     Al2128   1.786       .  S
O2125      C2126   1.265       .  A
C2126      C2677   1.488       .  S
C2127      C2704   1.505       .  S
C2130      C2749   1.494       .  S
C2131      O2132   1.265       .  A
C2131      C2692   1.472       .  S
O2133      C2148   1.268       .  A
O2133     Al2141   1.936       .  S
C2134      O2135   1.259       .  A
C2134      C2629   1.502       .  S
O2136      C2138   1.257       .  A
O2136     Al2137   1.877       .  S
Al2137     O2145   1.863       .  S
Al2137     O2147   1.923       .  S
Al2137     O2146   1.790       .  S
C2138      O2151   1.260       .  A
C2138      C2644   1.469       .  S
O2139      C2149   1.265       .  A
O2139     Al2141   1.919       .  S
O2140      C2153   1.266       .  A
O2140     Al2150   1.928       .  S
Al2141     O2154   1.881       .  S
Al2141     O2151   1.883       .  S
Al2141     O2146   1.774       .  S
O2142      C2149   1.265       .  A
O2142     Al2150   1.933       .  S
O2143      C2152   1.272       .  A
O2143     Al2150   1.956       .  S
O2144     Al2150   1.908       .  S
O2145      C2152   1.258       .  A
O2146     Al2150   1.790       .  S
O2147      C2148   1.262       .  A
C2148      C2605   1.501       .  S
C2149      C2596   1.509       .  S
C2152      C2620   1.479       .  S
C2153      O2154   1.259       .  A
C2153      C2737   1.474       .  S
O2155      C2170   1.265       .  A
O2155     Al2163   1.909       .  S
C2156      O2157   1.266       .  A
C2156      C2557   1.509       .  S
O2158      C2160   1.254       .  A
O2158     Al2159   1.873       .  S
Al2159     O2167   1.874       .  S
Al2159     O2169   1.912       .  S
Al2159     O2168   1.774       .  S
C2160      O2173   1.257       .  A
C2160      C2572   1.475       .  S
O2161      C2171   1.267       .  A
O2161     Al2163   1.915       .  S
O2162      C2175   1.274       .  A
O2162     Al2172   1.950       .  S
Al2163     O2176   1.886       .  S
Al2163     O2173   1.895       .  S
Al2163     O2168   1.776       .  S
O2164      C2171   1.264       .  A
O2164     Al2172   1.924       .  S
O2165      C2174   1.265       .  A
O2165     Al2172   1.948       .  S
O2166     Al2172   1.927       .  S
O2167      C2174   1.255       .  A
O2168     Al2172   1.778       .  S
O2169      C2170   1.265       .  A
C2170      C2689   1.493       .  S
C2171      C2581   1.500       .  S
C2174      C2617   1.485       .  S
C2175      O2176   1.259       .  A
C2175      C2548   1.476       .  S
O2177      C2192   1.269       .  A
O2177     Al2185   1.920       .  S
C2178      O2179   1.266       .  A
C2178      C2512   1.504       .  S
O2180      C2182   1.254       .  A
O2180     Al2181   1.870       .  S
Al2181     O2189   1.871       .  S
Al2181     O2191   1.922       .  S
Al2181     O2190   1.779       .  S
C2182      O2195   1.254       .  A
C2182      C2521   1.456       .  S
O2183      C2193   1.266       .  A
O2183     Al2185   1.925       .  S
O2184      C2197   1.273       .  A
O2184     Al2194   1.947       .  S
Al2185     O2198   1.889       .  S
Al2185     O2195   1.875       .  S
Al2185     O2190   1.776       .  S
O2186      C2193   1.265       .  A
O2186     Al2194   1.930       .  S
O2187      C2196   1.266       .  A
O2187     Al2194   1.944       .  S
O2188     Al2194   1.923       .  S
O2189      C2196   1.256       .  A
O2190     Al2194   1.778       .  S
O2191      C2192   1.265       .  A
C2192      C2764   1.502       .  S
C2193      C2533   1.507       .  S
C2196      C2500   1.482       .  S
C2197      O2198   1.260       .  A
C2197      C2608   1.477       .  S
O2199      C2214   1.265       .  A
O2199     Al2207   1.931       .  S
C2200      O2201   1.261       .  A
C2200      C2476   1.499       .  S
O2202      C2204   1.260       .  A
O2202     Al2203   1.885       .  S
Al2203     O2211   1.867       .  S
Al2203     O2213   1.909       .  S
Al2203     O2212   1.791       .  S
C2204      O2217   1.260       .  A
C2204      C2485   1.467       .  S
O2205      C2215   1.264       .  A
O2205     Al2207   1.920       .  S
O2206      C2219   1.274       .  A
O2206     Al2216   1.955       .  S
Al2207     O2220   1.867       .  S
Al2207     O2217   1.880       .  S
Al2207     O2212   1.775       .  S
O2208      C2215   1.261       .  A
O2208     Al2216   1.910       .  S
O2209      C2218   1.273       .  A
O2209     Al2216   1.968       .  S
O2210     Al2216   1.936       .  S
O2211      C2218   1.260       .  A
O2212     Al2216   1.789       .  S
O2213      C2214   1.259       .  A
C2214      C2545   1.486       .  S
C2215      C2461   1.497       .  S
C2218      C2497   1.483       .  S
C2219      O2220   1.256       .  A
C2219      C2680   1.481       .  S
O2221      C2236   1.252       .  A
O2221     Al2229   1.838       .  S
C2222      O2232   1.255       .  A
C2222      O2223   1.277       .  A
C2222      C2593   1.503       .  S
O2223     Al2225   1.978       .  S
O2224      C2226   1.253       .  A
O2224     Al2225   1.882       .  S
Al2225     O2233   1.919       .  S
Al2225     O2235   1.989       .  S
Al2225     O2234   1.786       .  S
C2226      O2239   1.265       .  A
C2226      C2509   1.502       .  S
O2227      C2237   1.259       .  A
O2227     Al2229   1.872       .  S
O2228      C2241   1.267       .  A
O2228     Al2238   1.919       .  S
Al2229     O2242   1.927       .  S
Al2229     O2239   1.947       .  S
Al2229     O2234   1.774       .  S
O2230      C2237   1.258       .  A
O2230     Al2238   1.885       .  S
O2231      C2240   1.259       .  A
O2231     Al2238   1.905       .  S
O2232     Al2238   1.858       .  S
O2233      C2240   1.261       .  A
O2234     Al2238   1.785       .  S
O2235      C2236   1.279       .  A
C2236      C2452   1.482       .  S
C2237      C2725   1.463       .  S
C2240      C2437   1.488       .  S
C2241      O2242   1.266       .  A
C2241      C2428   1.482       .  S
O2243      C2258   1.256       .  A
O2243     Al2251   1.869       .  S
C2244      O2254   1.257       .  A
C2244      O2245   1.272       .  A
C2244      C2464   1.499       .  S
O2245     Al2247   1.960       .  S
O2246      C2248   1.261       .  A
O2246     Al2247   1.902       .  S
Al2247     O2255   1.923       .  S
Al2247     O2257   1.960       .  S
Al2247     O2256   1.782       .  S
C2248      O2261   1.271       .  A
C2248      C2560   1.515   1_554  S
O2249      C2259   1.261       .  A
O2249     Al2251   1.885       .  S
O2250      C2263   1.266       .  A
O2250     Al2260   1.914       .  S
Al2251     O2264   1.933       .  S
Al2251     O2261   1.965       .  S
Al2251     O2256   1.777       .  S
O2252      C2259   1.258       .  A
O2252     Al2260   1.872       .  S
O2253      C2262   1.259       .  A
O2253     Al2260   1.904       .  S
O2254     Al2260   1.874       .  S
O2255      C2262   1.264       .  A
O2256     Al2260   1.784       .  S
O2257      C2258   1.271       .  A
C2258      C2416   1.478       .  S
C2259      C2668   1.467       .  S
C2262      C2440   1.481       .  S
C2263      O2264   1.267       .  A
C2263      C2404   1.485       .  S
O2265      C2280   1.262       .  A
O2265     Al2273   1.895       .  S
C2266      O2276   1.264       .  A
C2266      C2536   1.500       .  S
O2267     Al2269   1.923       .  S
O2268      C2270   1.264       .  A
O2268     Al2269   1.923       .  S
Al2269     O2277   1.950       .  S
Al2269     O2279   1.938       .  S
Al2269     O2278   1.784       .  S
C2270      O2283   1.263       .  A
C2270      C2716   1.498       .  S
O2271      C2281   1.261       .  A
O2271     Al2273   1.890       .  S
O2272      C2285   1.262       .  A
O2272     Al2282   1.916       .  S
Al2273     O2286   1.927       .  S
Al2273     O2283   1.914       .  S
Al2273     O2278   1.771       .  S
O2274      C2281   1.257       .  A
O2274     Al2282   1.875       .  S
O2275      C2284   1.257       .  A
O2275     Al2282   1.865       .  S
O2277      C2284   1.268       .  A
O2278     Al2282   1.780       .  S
O2279      C2280   1.270       .  A
C2280      C2425   1.480       .  S
C2281      C2641   1.469       .  S
C2284      C2392   1.470       .  S
C2285      O2286   1.266       .  A
C2285      C2380   1.486       .  S
O2287      C2302   1.262       .  A
O2287     Al2295   1.889       .  S
C2288      O2298   1.260       .  A
C2288      C2701   1.489       .  S
O2289     Al2291   1.931       .  S
O2290      C2292   1.265       .  A
O2290     Al2291   1.933       .  S
Al2291     O2299   1.972       .  S
Al2291     O2301   1.953       .  S
Al2291     O2300   1.780       .  S
C2292      O2305   1.262       .  A
C2292      C2473   1.507       .  S
O2293      C2303   1.257       .  A
O2293     Al2295   1.866       .  S
O2294      C2307   1.260       .  A
O2294     Al2304   1.922       .  S
Al2295     O2308   1.904       .  S
Al2295     O2305   1.917       .  S
Al2295     O2300   1.762       .  S
O2296      C2303   1.254       .  A
O2296     Al2304   1.873       .  S
O2297      C2306   1.256       .  A
O2297     Al2304   1.869       .  S
O2299      C2306   1.273       .  A
O2300     Al2304   1.786       .  S
O2301      C2302   1.277       .  A
C2302      C2368   1.487       .  S
C2303      C2569   1.447       .  S
C2306      C2389   1.491       .  S
C2307      O2308   1.263       .  A
C2307      C2413   1.476       .  S
O2309      C2324   1.260       .  A
O2309     Al2317   1.898       .  S
C2310      O2320   1.261       .  A
C2310      C2584   1.496       .  S
O2311     Al2313   1.919       .  S
O2312      C2314   1.270       .  A
O2312     Al2313   1.947       .  S
Al2313     O2321   1.958       .  S
Al2313     O2323   1.947       .  S
Al2313     O2322   1.778       .  S
C2314      O2327   1.264       .  A
C2314      C2653   1.500       .  S
O2315      C2325   1.259       .  A
O2315     Al2317   1.900       .  S
O2316      C2329   1.264       .  A
O2316     Al2326   1.929       .  S
Al2317     O2330   1.902       .  S
Al2317     O2327   1.896       .  S
Al2317     O2322   1.769       .  S
O2318      C2325   1.254       .  A
O2318     Al2326   1.870       .  S
O2319      C2328   1.254       .  A
O2319     Al2326   1.861       .  S
O2321      C2328   1.270       .  A
O2322     Al2326   1.772       .  S
O2323      C2324   1.271       .  A
C2324      C2401   1.480       .  S
C2325      C2488   1.474       .  S
C2328      C2356   1.490       .  S
C2329      O2330   1.268       .  A
C2329      C2365   1.496       .  S
O2331      C2346   1.261       .  A
O2331     Al2339   1.889       .  S
C2332      O2342   1.263       .  A
C2332      C2776   1.507       .  S
O2333     Al2335   1.913       .  S
O2334      C2336   1.262       .  A
O2334     Al2335   1.924       .  S
Al2335     O2343   1.950       .  S
Al2335     O2345   1.936       .  S
Al2335     O2344   1.786       .  S
C2336      O2349   1.267       .  A
C2336      C2632   1.511       .  S
O2337      C2347   1.258       .  A
O2337     Al2339   1.879       .  S
O2338      C2351   1.258       .  A
O2338     Al2348   1.905       .  S
Al2339     O2352   1.936       .  S
Al2339     O2349   1.934       .  S
Al2339     O2344   1.771       .  S
O2340      C2347   1.258       .  A
O2340     Al2348   1.883       .  S
O2341      C2350   1.258       .  A
O2341     Al2348   1.883       .  S
O2343      C2350   1.268       .  A
O2344     Al2348   1.787       .  S
O2345      C2346   1.272       .  A
C2346      C2377   1.473       .  S
C2347      C2524   1.458       .  S
C2350      C2353   1.477       .  S
C2351      O2352   1.270       .  A
C2351      C2449   1.486       .  S
C2353      C2354   1.397       .  A
C2354      C2355   1.398       .  A
C2354      H2359   1.086       .  S
C2355      C2362   1.445       .  S
C2356      C2357   1.407       .  A
C2357      C2358   1.407       .  A
C2357      H2360   1.084       .  S
C2358      C2361   1.443       .  S
C2361      N2363   1.157       .  T
C2362      N2364   1.157       .  T
C2365      C2366   1.397       .  A
C2365      C2370   1.422       .  A
C2366      C2367   1.392       .  A
C2366      H2371   1.086       .  S
C2367      C2368   1.418       .  A
C2367      C2374   1.438       .  S
C2368      C2369   1.404       .  A
C2369      C2370   1.413       .  A
C2369      H2372   1.085       .  S
C2370      C2373   1.443       .  S
C2373      N2375   1.157   1_655  T
C2374      N2376   1.155       .  T
C2377      C2378   1.403       .  A
C2377      C2382   1.410       .  A
C2378      C2379   1.406       .  A
C2378      H2383   1.082       .  S
C2379      C2380   1.410       .  A
C2379      C2386   1.440       .  S
C2380      C2381   1.406       .  A
C2381      C2382   1.401       .  A
C2381      H2384   1.086       .  S
C2382      C2385   1.444       .  S
C2385      N2387   1.157       .  T
C2386      N2388   1.156       .  T
C2389      C2390   1.407       .  A
C2390      C2391   1.410       .  A
C2390      H2395   1.084       .  S
C2391      C2398   1.443       .  S
C2392      C2393   1.397       .  A
C2393      C2394   1.393       .  A
C2393      H2396   1.086       .  S
C2394      C2397   1.446       .  S
C2397      N2399   1.157       .  T
C2398      N2400   1.157       .  T
C2401      C2402   1.407       .  A
C2401      C2406   1.411       .  A
C2402      C2403   1.407       .  A
C2402      H2407   1.085       .  S
C2403      C2404   1.409       .  A
C2403      C2410   1.443       .  S
C2404      C2405   1.407       .  A
C2405      C2406   1.406       .  A
C2405      H2408   1.085       .  S
C2406      C2409   1.444       .  S
C2409      N2411   1.157       .  T
C2410      N2412   1.157       .  T
C2413      C2414   1.402       .  A
C2413      C2418   1.407       .  A
C2414      C2415   1.402       .  A
C2414      H2419   1.085       .  S
C2415      C2416   1.413       .  A
C2415      C2422   1.443       .  S
C2416      C2417   1.407       .  A
C2417      C2418   1.403       .  A
C2417      H2420   1.085       .  S
C2418      C2421   1.444       .  S
C2421      N2423   1.157       .  T
C2422      N2424   1.157       .  T
C2425      C2426   1.405       .  A
C2425      C2430   1.409       .  A
C2426      C2427   1.405       .  A
C2426      H2431   1.081       .  S
C2427      C2428   1.407       .  A
C2427      C2434   1.442       .  S
C2428      C2429   1.408       .  A
C2429      C2430   1.407       .  A
C2429      H2432   1.083       .  S
C2430      C2433   1.444       .  S
C2433      N2435   1.157       .  T
C2434      N2436   1.157       .  T
C2437      C2438   1.404       .  A
C2437      C2442   1.417       .  A
C2438      C2439   1.405       .  A
C2438      H2443   1.085       .  S
C2439      C2440   1.414       .  A
C2439      C2446   1.444       .  S
C2440      C2441   1.401       .  A
C2441      C2442   1.404       .  A
C2441      H2444   1.085       .  S
C2442      C2445   1.444       .  S
C2445      N2447   1.157       .  T
C2446      N2448   1.157       .  T
C2449      C2450   1.409       .  A
C2449      C2454   1.405       .  A
C2450      C2451   1.407       .  A
C2450      H2455   1.085       .  S
C2451      C2452   1.410       .  A
C2451      C2458   1.444       .  S
C2452      C2453   1.410       .  A
C2453      C2454   1.404       .  A
C2453      H2456   1.084       .  S
C2454      C2457   1.442       .  S
C2457      N2459   1.157       .  T
C2458      N2460   1.157       .  T
C2461      C2462   1.410       .  A
C2461      C2466   1.413   1_556  A
C2462      C2463   1.407   1_556  A
C2462      H2467   1.085       .  S
C2463      C2464   1.414       .  A
C2463      C2470   1.442       .  S
C2464      C2465   1.411       .  A
C2465      C2466   1.405       .  A
C2465      H2468   1.085       .  S
C2466      C2469   1.444       .  S
C2469      N2471   1.157       .  T
C2470      N2472   1.157       .  T
C2473      C2474   1.412   1_554  A
C2473      C2478   1.420       .  A
C2474      C2475   1.410       .  A
C2474      H2479   1.084       .  S
C2475      C2476   1.415       .  A
C2475      C2482   1.444       .  S
C2476      C2477   1.406       .  A
C2477      C2478   1.403   1_556  A
C2477      H2480   1.085   1_655  S
C2478      C2481   1.444       .  S
C2481      N2483   1.157       .  T
C2482      N2484   1.157       .  T
C2485      C2486   1.405       .  A
C2485      C2490   1.411       .  A
C2486      H2491   1.085       .  S
C2487      C2488   1.412   1_455  A
C2487      C2494   1.446       .  S
C2488      C2489   1.408   1_554  A
C2489      H2492   1.084   1_556  S
C2490      C2493   1.443       .  S
C2493      N2495   1.157       .  T
C2494      N2496   1.157       .  T
C2497      C2498   1.399       .  A
C2497      C2502   1.413       .  A
C2498      H2503   1.086       .  S
C2499      C2500   1.416   1_455  A
C2499      C2506   1.445       .  S
C2500      C2501   1.405       .  A
C2501      H2504   1.084       .  S
C2502      C2505   1.443       .  S
C2505      N2507   1.157       .  T
C2506      N2508   1.157       .  T
C2509      C2510   1.410       .  A
C2509      C2514   1.413       .  A
C2510      C2511   1.406       .  A
C2510      H2515   1.085       .  S
C2511      C2512   1.417       .  A
C2511      C2518   1.445       .  S
C2512      C2513   1.412       .  A
C2513      C2514   1.408       .  A
C2513      H2516   1.084       .  S
C2514      C2517   1.443       .  S
C2517      N2519   1.157       .  T
C2518      N2520   1.157       .  T
C2521      C2526   1.410       .  A
C2522      C2523   1.388       .  A
C2522      H2527   1.086       .  S
C2523      C2524   1.407       .  A
C2523      C2530   1.445       .  S
C2524      C2525   1.404       .  A
C2525      H2528   1.085       .  S
C2526      C2529   1.445       .  S
C2529      N2531   1.157       .  T
C2530      N2532   1.157       .  T
C2533      C2534   1.410       .  A
C2533      C2538   1.422       .  A
C2534      C2535   1.410       .  A
C2534      H2539   1.084       .  S
C2535      C2536   1.415       .  A
C2535      C2542   1.443       .  S
C2536      C2537   1.406       .  A
C2537      C2538   1.405       .  A
C2537      H2540   1.085       .  S
C2538      C2541   1.445       .  S
C2541      N2543   1.157       .  T
C2542      N2544   1.157       .  T
C2545      C2546   1.405       .  A
C2545      C2550   1.410       .  A
C2546      C2547   1.399       .  A
C2546      H2551   1.086       .  S
C2547      C2548   1.413       .  A
C2547      C2554   1.446       .  S
C2548      C2549   1.406       .  A
C2549      C2550   1.410       .  A
C2549      H2552   1.085       .  S
C2550      C2553   1.439       .  S
C2553      N2555   1.156       .  T
C2554      N2556   1.157       .  T
C2557      C2558   1.414       .  A
C2557      C2562   1.411       .  A
C2558      C2559   1.414       .  A
C2558      H2563   1.085       .  S
C2559      C2560   1.419       .  A
C2559      C2566   1.444       .  S
C2560      C2561   1.412       .  A
C2561      C2562   1.408       .  A
C2561      H2564   1.081   1_556  S
C2562      C2565   1.443       .  S
C2565      N2567   1.157       .  T
C2566      N2568   1.158       .  T
C2569      C2570   1.397   1_554  A
C2570      C2571   1.384       .  A
C2570      H2575   1.086       .  S
C2571      C2578   1.445       .  S
C2572      C2573   1.408       .  A
C2573      C2574   1.396   1_556  A
C2573      H2576   1.085   1_556  S
C2574      C2577   1.445       .  S
C2577      N2579   1.158       .  T
C2578      N2580   1.157       .  T
C2581      C2582   1.405   1_556  A
C2581      C2586   1.422       .  A
C2582      C2583   1.402       .  A
C2582      H2587   1.084       .  S
C2583      C2584   1.418       .  A
C2583      C2590   1.443       .  S
C2584      C2585   1.406       .  A
C2585      C2586   1.406   1_554  A
C2585      H2588   1.085       .  S
C2586      C2589   1.445       .  S
C2589      N2591   1.158       .  T
C2590      N2592   1.157       .  T
C2593      C2594   1.406       .  A
C2593      C2598   1.420       .  A
C2594      C2595   1.415       .  A
C2594      H2599   1.085       .  S
C2595      C2596   1.423       .  A
C2595      C2602   1.443       .  S
C2596      C2597   1.405       .  A
C2597      C2598   1.405       .  A
C2597      H2600   1.085       .  S
C2598      C2601   1.445       .  S
C2601      N2603   1.157       .  T
C2602      N2604   1.157       .  T
C2605      C2606   1.405       .  A
C2605      C2610   1.421       .  A
C2606      C2607   1.408       .  A
C2606      H2611   1.078       .  S
C2607      C2608   1.409       .  A
C2607      C2614   1.444       .  S
C2608      C2609   1.402       .  A
C2609      C2610   1.406       .  A
C2609      H2612   1.085       .  S
C2610      C2613   1.444       .  S
C2613      N2615   1.157       .  T
C2614      N2616   1.157       .  T
C2617      C2618   1.407       .  A
C2617      C2622   1.410       .  A
C2618      H2623   1.084   1_565  S
C2619      C2620   1.410       .  A
C2619      C2626   1.443       .  S
C2620      C2621   1.406       .  A
C2621      H2624   1.085       .  S
C2622      C2625   1.447       .  S
C2625      N2627   1.158       .  T
C2626      N2628   1.157       .  T
C2629      C2630   1.405       .  A
C2629      C2634   1.417       .  A
C2630      C2631   1.408       .  A
C2630      H2635   1.085   1_565  S
C2631      C2632   1.425       .  A
C2631      C2638   1.445       .  S
C2632      C2633   1.408       .  A
C2633      C2634   1.409       .  A
C2633      H2636   1.083       .  S
C2634      C2637   1.444       .  S
C2637      N2639   1.157       .  T
C2638      N2640   1.158       .  T
C2641      C2642   1.404       .  A
C2642      C2643   1.388       .  A
C2642      H2647   1.085       .  S
C2643      C2650   1.445       .  S
C2644      C2645   1.404       .  A
C2645      C2646   1.387       .  A
C2645      H2648   1.085       .  S
C2646      C2649   1.444       .  S
C2649      N2651   1.157       .  T
C2650      N2652   1.157       .  T
C2653      C2654   1.409   1_554  A
C2653      C2658   1.418       .  A
C2654      C2655   1.403       .  A
C2654      H2659   1.085       .  S
C2655      C2656   1.414       .  A
C2655      C2662   1.444       .  S
C2656      C2657   1.409       .  A
C2657      C2658   1.407   1_556  A
C2657      H2660   1.085       .  S
C2658      C2661   1.444       .  S
C2661      N2663   1.157       .  T
C2662      N2664   1.157       .  T
C2665      C2666   1.403       .  A
C2665      C2670   1.403   1_556  A
C2666      C2667   1.392   1_556  A
C2666      H2671   1.085       .  S
C2667      C2668   1.411       .  A
C2667      C2674   1.443   1_554  S
C2668      C2669   1.408       .  A
C2669      C2670   1.383       .  A
C2669      H2672   1.084       .  S
C2670      C2673   1.444       .  S
C2673      N2675   1.157       .  T
C2674      N2676   1.157       .  T
C2677      C2678   1.405       .  A
C2677      C2682   1.412       .  A
C2678      C2679   1.410       .  A
C2678      H2683   1.084       .  S
C2679      C2680   1.412       .  A
C2679      C2686   1.440       .  S
C2680      C2681   1.405       .  A
C2681      C2682   1.405       .  A
C2681      H2684   1.086       .  S
C2682      C2685   1.442       .  S
C2685      N2687   1.156       .  T
C2686      N2688   1.156       .  T
C2689      C2690   1.414       .  A
C2689      C2694   1.416       .  A
C2690      C2691   1.403       .  A
C2690      H2695   1.084       .  S
C2691      C2692   1.404       .  A
C2691      C2698   1.443       .  S
C2692      C2693   1.404       .  A
C2693      C2694   1.399       .  A
C2693      H2696   1.086       .  S
C2694      C2697   1.444       .  S
C2697      N2699   1.157       .  T
C2698      N2700   1.157       .  T
C2701      C2702   1.403       .  A
C2701      C2706   1.412       .  A
C2702      C2703   1.404   1_554  A
C2702      H2707   1.086   1_565  S
C2703      C2704   1.421       .  A
C2703      C2710   1.443       .  S
C2704      C2705   1.409   1_556  A
C2705      C2706   1.406       .  A
C2705      H2708   1.081       .  S
C2706      C2709   1.444       .  S
C2709      N2711   1.157       .  T
C2710      N2712   1.157       .  T
C2713      C2714   1.411       .  A
C2713      C2718   1.415       .  A
C2714      C2715   1.405       .  A
C2714      H2719   1.084       .  S
C2715      C2716   1.414       .  A
C2715      C2722   1.444       .  S
C2716      C2717   1.409       .  A
C2717      C2718   1.407       .  A
C2717      H2720   1.085       .  S
C2718      C2721   1.443       .  S
C2721      N2723   1.157       .  T
C2722      N2724   1.157       .  T
C2725      C2726   1.406       .  A
C2725      C2730   1.416       .  A
C2726      C2727   1.391       .  A
C2726      H2731   1.085       .  S
C2727      C2728   1.407       .  A
C2727      C2734   1.444       .  S
C2728      C2729   1.396       .  A
C2729      C2730   1.382       .  A
C2729      H2732   1.086       .  S
C2730      C2733   1.446       .  S
C2733      N2735   1.157       .  T
C2734      N2736   1.157       .  T
C2737      C2738   1.402       .  A
C2737      C2742   1.408       .  A
C2738      C2739   1.406       .  A
C2738      H2743   1.085       .  S
C2739      C2740   1.417       .  A
C2739      C2746   1.442       .  S
C2740      C2741   1.402       .  A
C2741      C2742   1.400       .  A
C2741      H2744   1.084       .  S
C2742      C2745   1.441       .  S
C2745      N2747   1.156       .  T
C2746      N2748   1.157       .  T
C2749      C2750   1.408       .  A
C2749      C2754   1.417       .  A
C2750      C2751   1.392       .  A
C2750      H2755   1.085       .  S
C2751      C2752   1.410       .  A
C2751      C2758   1.447       .  S
C2752      C2753   1.407       .  A
C2753      C2754   1.411       .  A
C2753      H2756   1.085       .  S
C2754      C2757   1.443       .  S
C2757      N2759   1.157       .  T
C2758      N2760   1.157       .  T
C2761      C2762   1.405       .  A
C2761      C2766   1.406       .  A
C2762      C2763   1.399       .  A
C2762      H2767   1.085       .  S
C2763      C2764   1.416       .  A
C2763      C2770   1.442       .  S
C2764      C2765   1.417       .  A
C2765      C2766   1.410       .  A
C2765      H2768   1.084       .  S
C2766      C2769   1.443       .  S
C2769      N2771   1.157       .  T
C2770      N2772   1.156       .  T
C2773      C2774   1.409       .  A
C2773      C2778   1.418       .  A
C2774      C2775   1.408       .  A
C2774      H2779   1.084       .  S
C2775      C2776   1.416       .  A
C2776      C2777   1.411       .  A
C2777      C2778   1.408       .  A
C2777      H2780   1.084       .  S
C2778      C2781   1.444       .  S
C2781      N2783   1.157       .  T
C2782      N2784   1.156       .  T
