geometry optimzed in LAMMPS
_audit_creation_date              2020-12-01 
_audit_creation_method            'lammps2cif' 
_symmetry_space_group_name_H-M    'P1' 
_symmetry_Int_Tables_number       1 
_symmetry_cell_setting            triclinic 
loop_ 
_symmetry_equiv_pos_as_xyz 
  x,y,z 
_cell_length_a                    29.08684052 
_cell_length_b                    29.02182655279784 
_cell_length_c                    28.162305107207143 
_cell_angle_alpha                 90.13599948171809 
_cell_angle_beta                  89.96477568204155 
_cell_angle_gamma                 90.05628370602784 
loop_ 
_atom_site_label 
_atom_site_type_symbol 
_atom_site_fract_x 
_atom_site_fract_y 
_atom_site_fract_z 
_atom_site_charge 
Zr1        Zr  0.94089618  0.82864753  0.00378398     2.17500
O2          O  0.87571320  0.87177743  0.97264466    -0.51000
O3          O  0.95025657  0.89608461  0.05757796    -0.74200
O4          O  0.86409734  0.79752607  0.02989418    -0.81000
O5          O  0.03267339  0.88498181  0.92485484    -0.82800
O6          O  0.87337553  0.73047193  0.07105584    -0.78400
O7          O  0.95565062  0.88605804  0.93916715    -0.90000
O8          O  0.01406379  0.88384406  0.10227265    -0.76000
O9          O  0.96009585  0.78812467  0.07540691    -0.85500
O10         O  0.02074608  0.84260514  0.01785054    -0.85200
O11         O  0.92908503  0.74697278  0.98913502    -0.71900
O12         O  0.98238820  0.79969242  0.93583406    -0.84100
Zr13       Zr  0.06898611  0.69511986  0.00670741     2.26400
Zr14       Zr  0.95150143  0.70645725  0.06034770     2.06300
Zr15       Zr  0.06223955  0.81283937  0.95197261     2.10000
Zr16       Zr  0.03900721  0.80442141  0.08998968     1.78800
O17         O  0.07070649  0.81670601  0.86610552    -0.92900
O18         O  0.99975156  0.80024292  0.16648196    -0.40700
O19         O  0.08299778  0.77496762  0.02398499    -0.77300
O20         O  0.03002540  0.72285489  0.07648977    -0.96000
O21         O  0.99039365  0.67870021  0.99195640    -0.89300
O22         O  0.04897284  0.73391005  0.93552049    -0.92100
C23         C  0.98185610  0.91003253  0.08658465     1.01600
C24         C  0.99272102  0.90249112  0.91988858     1.14500
C25         C  0.84837486  0.76209992  0.05306256     1.05300
O26         O  0.94899465  0.70548180  0.14674952    -0.94300
O27         O  0.98120497  0.62726215  0.07377063    -0.90000
O28         O  0.05439511  0.62261966  0.04616409    -0.83200
C29         C  0.01897320  0.60489694  0.06615474     1.12000
O30         O  0.90290900  0.74527723  0.87734549    -0.96300
Zr31       Zr  0.96973655  0.71928669  0.92191288     1.88900
O32         O  0.06734831  0.63733080  0.94429552    -0.72900
O33         O  0.89025412  0.64939024  0.05392359    -0.52200
O34         O  0.91063925  0.65972900  0.91962181    -0.96900
O35         O  0.98891229  0.73647184  0.83953430    -0.54100
O36         O  0.00766693  0.65061829  0.89421213    -0.73400
C37         C  0.04283519  0.62767493  0.90765764     0.98900
O38         O  0.13396144  0.66875136  0.05414506    -0.62300
O39         O  0.12110549  0.87068466  0.96789959    -0.57100
O40         O  0.14091954  0.71066046  0.96632669    -0.93700
O41         O  0.13860601  0.78325328  0.93677077    -0.92200
O42         O  0.10810113  0.85055551  0.10218412    -0.92500
O43         O  0.09255691  0.77515263  0.14928133    -0.91300
C44         C  0.15915775  0.74497880  0.94464756     1.17800
H45         H  0.02799278  0.87499825  0.01850396     0.33700
H46         H  0.04004996  0.70582967  0.10409330     0.44500
H47         H  0.06750890  0.72383950  0.90895948     0.38100
H48         H  0.89757720  0.73995299  0.98118333     0.34600
H49         H  0.01740165  0.82114397  0.18751090     0.26300
H50         H  0.89027688  0.63289072  0.08466598     0.32300
H51         H  0.91467383  0.64431270  0.88849494     0.38200
H52         H  0.10143235  0.86981630  0.13043394     0.32600
H53         H  0.12532138  0.88707617  0.93739885     0.31500
H54         H  0.09655715  0.83837436  0.86107092     0.33200
H55         H  0.97483668  0.71112342  0.82095388     0.32200
H56         H  0.11700236  0.75969138  0.13065591     0.36200
H57         H  0.15685659  0.69398254  0.05288290     0.28900
H58         H  0.85797024  0.88199597  0.00076622     0.33100
H59         H  0.89169758  0.77257660  0.89504778     0.36000
H60         H  0.10621797  0.89353268  0.98903585     0.28600
H61         H  0.12267402  0.66959037  0.08731921     0.41500
H62         H  0.92456388  0.72778870  0.15520999     0.31500
H63         H  0.97002931  0.81621883  0.16186419     0.39100
H64         H  0.02240621  0.73107317  0.83683691     0.31000
H65         H  0.90139602  0.62652594  0.03044682     0.31100
H66         H  0.85591738  0.84882070  0.95648049     0.31300
Zr67       Zr  0.56706161  0.63442193  0.00344661     2.17500
O68         O  0.63117613  0.58729076  0.97579164    -0.51000
O69         O  0.55681879  0.57044326  0.06041099    -0.74200
O70         O  0.64442463  0.66493301  0.02763173    -0.81000
O71         O  0.47375992  0.57783743  0.92689681    -0.82800
O72         O  0.63430849  0.72518876  0.07838463    -0.78400
O73         O  0.55059437  0.57447943  0.94193888    -0.90000
O74         O  0.49116301  0.58301963  0.10209709    -0.76000
O75         O  0.54775053  0.67642820  0.07419738    -0.85500
O76         O  0.48675383  0.62243647  0.01668744    -0.85200
O77         O  0.58222861  0.71524595  0.98746264    -0.71900
O78         O  0.52707814  0.66323350  0.93448335    -0.84100
Zr79       Zr  0.44342752  0.77152019  0.00453701     2.26400
Zr80       Zr  0.56058097  0.75731176  0.05825897     2.06300
Zr81       Zr  0.44658584  0.65260191  0.95018252     2.10000
Zr82       Zr  0.46812249  0.66248498  0.08777062     1.78800
O83         O  0.43580934  0.64291495  0.86503397    -0.92900
O84         O  0.50017426  0.66261544  0.16768627    -0.40700
O85         O  0.42595949  0.69244220  0.02134610    -0.77300
O86         O  0.48142037  0.74334530  0.07430850    -0.96000
O87         O  0.52243582  0.78509081  0.98962351    -0.89300
O88         O  0.46264444  0.73110612  0.93364380    -0.92100
C89         C  0.52447262  0.55701733  0.08865864     1.01600
C90         C  0.51303240  0.55835724  0.92352159     1.14500
C91         C  0.65991386  0.69763064  0.05484166     1.05300
O92         O  0.56444859  0.76671352  0.14415134    -0.94300
O93         O  0.53385850  0.83768929  0.07035421    -0.90000
O94         O  0.45935107  0.84276498  0.04655329    -0.83200
C95         C  0.49583453  0.86013990  0.06484370     1.12000
O96         O  0.60690242  0.71587476  0.87245564    -0.96300
Zr97       Zr  0.54224785  0.74322325  0.91998353     1.88900
O98         O  0.44886017  0.83075760  0.94454705    -0.72900
O99         O  0.62184305  0.81284692  0.04297883    -0.52200
O100        O  0.60486432  0.79914190  0.92034987    -0.96900
O101        O  0.52241418  0.72751976  0.83736234    -0.54100
O102        O  0.50667095  0.81362920  0.89326788    -0.73400
C103        C  0.47339729  0.83894134  0.90763159     0.98900
O104        O  0.37734658  0.79861012  0.05014098    -0.62300
O105        O  0.38407090  0.60004207  0.97034770    -0.57100
O106        O  0.37172699  0.75863182  0.96286075    -0.93700
O107        O  0.37264455  0.68644692  0.93170011    -0.92200
O108        O  0.39506468  0.62166781  0.09277995    -0.92500
O109        O  0.41611728  0.69467954  0.14696777    -0.91300
C110        C  0.35293307  0.72512175  0.94022531     1.17800
H111        H  0.47892304  0.59020804  0.01798206     0.33700
H112        H  0.47169773  0.76093140  0.10171683     0.44500
H113        H  0.44470982  0.74173679  0.90698977     0.38100
H114        H  0.61384757  0.72143776  0.97945365     0.34600
H115        H  0.48544668  0.63604435  0.18364310     0.26300
H116        H  0.63900912  0.81549932  0.07321990     0.32300
H117        H  0.59797598  0.82046068  0.89390686     0.38200
H118        H  0.39830771  0.60107698  0.12055693     0.32600
H119        H  0.38332316  0.57712547  0.94425469     0.31500
H120        H  0.46684332  0.64709829  0.85126463     0.33200
H121        H  0.53439312  0.75426918  0.81943099     0.32200
H122        H  0.39575250  0.71551722  0.12880868     0.36200
H123        H  0.35554008  0.77239225  0.05060313     0.28900
H124        H  0.64927340  0.57958057  0.00445911     0.33100
H125        H  0.61396564  0.74089682  0.84973052     0.36000
H126        H  0.39515190  0.58263040  0.99825651     0.28600
H127        H  0.38843802  0.80057014  0.08332272     0.41500
H128        H  0.53699368  0.78508950  0.15268369     0.31500
H129        H  0.53267007  0.65323486  0.16375485     0.39100
H130        H  0.48860896  0.73085291  0.83560484     0.31000
H131        H  0.64327622  0.79726093  0.02084891     0.31100
H132        H  0.65103023  0.60822305  0.95707565     0.31300
Zr133      Zr  0.15859711  0.04587482  0.70347416     2.17500
O134        O  0.11867496  0.11085657  0.73993938    -0.51000
O135        O  0.09158629  0.03627661  0.64934112    -0.74200
O136        O  0.18791404  0.12297782  0.67685599    -0.81000
O137        O  0.10576970  0.95429343  0.78583330    -0.82800
O138        O  0.25040879  0.11297057  0.62897569    -0.78400
O139        O  0.09842104  0.02972652  0.76501845    -0.90000
O140        O  0.10136777  0.96988556  0.60778016    -0.76000
O141        O  0.19579053  0.02489496  0.63020303    -0.85500
O142        O  0.14498476  0.96549247  0.69257308    -0.85200
O143        O  0.24070662  0.05906863  0.71373044    -0.71900
O144        O  0.19106982  0.00669488  0.77131178    -0.84100
Zr145      Zr  0.29259634  0.91975180  0.69611468     2.26400
Zr146      Zr  0.27774880  0.03557321  0.64056144     2.06300
Zr147      Zr  0.17817139  0.92593429  0.75798592     2.10000
Zr148      Zr  0.18005409  0.94482993  0.61946139     1.78800
O149        O  0.17871517  0.91643118  0.84386912    -0.92900
O150        O  0.17871035  0.97404223  0.53846284    -0.40700
O151        O  0.21276912  0.90332033  0.68479791    -0.77300
O152        O  0.26161451  0.95642577  0.62712689    -0.96000
O153        O  0.30874518  0.99876252  0.70839028    -0.89300
O154        O  0.25745476  0.94075935  0.76919057    -0.92100
C155        C  0.07651034  0.00374662  0.62185212     1.01600
C156        C  0.08465454  0.99282623  0.78679131     1.14500
C157        C  0.22143713  0.13843874  0.65085246     1.05300
O158        O  0.27527942  0.03013964  0.55431640    -0.94300
O159        O  0.35713664  0.00737087  0.62616576    -0.90000
O160        O  0.36361019  0.93489418  0.65508222    -0.83200
C161        C  0.38032591  0.97010234  0.63393195     1.12000
O162        O  0.24995942  0.08849878  0.82595915    -0.96300
Zr163      Zr  0.27206617  0.02042497  0.78036128     1.88900
O164        O  0.35295072  0.92117138  0.75464479    -0.72900
O165        O  0.33945549  0.09270309  0.63730526    -0.52200
O166        O  0.33161772  0.07949021  0.77725755    -0.96900
O167        O  0.26124719  0.00250580  0.86423205    -0.54100
O168        O  0.34271066  0.98291006  0.80315281    -0.73400
C169        C  0.36466421  0.94696313  0.78961292     0.98900
O170        O  0.31588131  0.85485842  0.64654591    -0.62300
O171        O  0.12148235  0.86530866  0.74482547    -0.57100
O172        O  0.28075695  0.84826835  0.73723476    -0.93700
O173        O  0.21062887  0.85035949  0.77248177    -0.92200
O174        O  0.13324826  0.87519905  0.61960987    -0.92500
O175        O  0.20602779  0.88662984  0.56312073    -0.91300
C176        C  0.24835743  0.83002095  0.76158369     1.17800
H177        H  0.11261393  0.95839300  0.69287272     0.33700
H178        H  0.27733970  0.94568705  0.59889244     0.44500
H179        H  0.26918582  0.92283571  0.79535954     0.38100
H180        H  0.24796311  0.09071021  0.72095376     0.34600
H181        H  0.15282045  0.95756632  0.52313378     0.26300
H182        H  0.33606895  0.10858680  0.60642231     0.32300
H183        H  0.34004999  0.08167782  0.74328585     0.38200
H184        H  0.11486197  0.87689077  0.59008742     0.32600
H185        H  0.10391189  0.86333786  0.77486717     0.31500
H186        H  0.17446715  0.94792220  0.85671451     0.33200
H187        H  0.28912859  0.01457927  0.88014412     0.32200
H188        H  0.22403812  0.86468785  0.58250657     0.36200
H189        H  0.28964682  0.83311541  0.64752747     0.28900
H190        H  0.10735818  0.13000781  0.71335885     0.33100
H191        H  0.27560924  0.09438751  0.84828487     0.36000
H192        H  0.09947403  0.87826316  0.72163654     0.28600
H193        H  0.31538618  0.86695526  0.61370016     0.41500
H194        H  0.27872576  0.06229674  0.54322763     0.31500
H195        H  0.16789329  0.00626533  0.54131908     0.39100
H196        H  0.26430306  0.96862770  0.86652022     0.31000
H197        H  0.33198783  0.11625475  0.66160240     0.31100
H198        H  0.14286708  0.12954589  0.75554548     0.31300
Zr199      Zr  0.35579589  0.41774426  0.70145484     2.17500
O200        O  0.40118644  0.35332120  0.73111139    -0.51000
O201        O  0.42484681  0.42716688  0.65035833    -0.74200
O202        O  0.32540971  0.34039477  0.67658923    -0.81000
O203        O  0.40855696  0.50669848  0.78620435    -0.82800
O204        O  0.25990572  0.35059481  0.63346450    -0.78400
O205        O  0.41131224  0.43034084  0.76772217    -0.90000
O206        O  0.41555742  0.49245072  0.60734713    -0.76000
O207        O  0.31942658  0.43855563  0.62774641    -0.85500
O208        O  0.37117556  0.49787737  0.68995678    -0.85200
O209        O  0.27339079  0.40618568  0.71178588    -0.71900
O210        O  0.32479743  0.45840534  0.76915678    -0.84100
Zr211      Zr  0.22401109  0.54667175  0.69378020     2.26400
Zr212      Zr  0.23736818  0.43020470  0.63816533     2.06300
Zr213      Zr  0.33898095  0.53882911  0.75513106     2.10000
Zr214      Zr  0.33649378  0.51813638  0.61648857     1.78800
O215        O  0.34068334  0.55050916  0.84080490    -0.92900
O216        O  0.34274144  0.48542436  0.53689514    -0.40700
O217        O  0.30444082  0.56097039  0.68179705    -0.77300
O218        O  0.25448207  0.50893429  0.62462611    -0.96000
O219        O  0.20702018  0.46765252  0.70633423    -0.89300
O220        O  0.25930780  0.52583460  0.76680832    -0.92100
C221        C  0.44045983  0.45922309  0.62287693     1.01600
C222        C  0.42657844  0.46670130  0.78931912     1.14500
C223        C  0.29035956  0.32508741  0.65272034     1.05300
O224        O  0.24971671  0.43778152  0.55305197    -0.94300
O225        O  0.15742127  0.45872151  0.62687450    -0.90000
O226        O  0.15206895  0.53245779  0.65291305    -0.83200
C227        C  0.13466127  0.49657499  0.63324892     1.12000
O228        O  0.26314319  0.37694958  0.82261488    -0.96300
Zr229      Zr  0.24385525  0.44638935  0.77843793     1.88900
O230        O  0.16377286  0.54567405  0.75285395    -0.72900
O231        O  0.17567619  0.37732897  0.61539269    -0.52200
O232        O  0.18412260  0.38766316  0.78300574    -0.96900
O233        O  0.26053979  0.46654971  0.86081062    -0.54100
O234        O  0.17359492  0.48403054  0.80123376    -0.69400
C235        C  0.15190021  0.52000586  0.78780717     0.98900
O236        O  0.20235487  0.61217691  0.64462006    -0.62300
O237        O  0.39917094  0.59552816  0.73993686    -0.57100
O238        O  0.23774794  0.61869059  0.73474258    -0.93700
O239        O  0.30800886  0.61525207  0.76974118    -0.92200
O240        O  0.37950776  0.59006791  0.61351313    -0.92500
O241        O  0.31007655  0.57119334  0.55539575    -0.91300
C242        C  0.27059903  0.63631103  0.75918678     1.17800
H243        H  0.40357766  0.50463979  0.69100824     0.33700
H244        H  0.23878556  0.51972038  0.59656794     0.44500
H245        H  0.24798591  0.54417829  0.79299684     0.38100
H246        H  0.26526038  0.37500884  0.71987823     0.34600
H247        H  0.36837397  0.50250838  0.52184669     0.26300
H248        H  0.18648452  0.36090421  0.58661087     0.32300
H249        H  0.16990500  0.39187369  0.81468942     0.38200
H250        H  0.40214689  0.58762770  0.63960485     0.32600
H251        H  0.40671883  0.60842430  0.77156816     0.31500
H252        H  0.36821357  0.56981884  0.84659064     0.33200
H253        H  0.23804178  0.44868893  0.87971154     0.32200
H254        H  0.28471561  0.58864477  0.57047995     0.36200
H255        H  0.23093649  0.63047887  0.64141202     0.28900
H256        H  0.40923158  0.33445707  0.70297942     0.33100
H257        H  0.29700221  0.37449314  0.82009553     0.36000
H258        H  0.42673146  0.57752986  0.73090163     0.28600
H259        H  0.19743691  0.59916329  0.61248280     0.41500
H260        H  0.21971280  0.44828897  0.54052151     0.31500
H261        H  0.35502336  0.45394376  0.54151570     0.39100
H262        H  0.25047928  0.49893053  0.86448162     0.31000
H263        H  0.17393838  0.35361262  0.64056615     0.31100
H264        H  0.37961872  0.33417994  0.74983772     0.31300
Zr265      Zr  0.85716579  0.54813195  0.50093870     2.17500
O266        O  0.90282523  0.61284599  0.47204243    -0.51000
O267        O  0.92399704  0.53820466  0.55449052    -0.74200
O268        O  0.82725720  0.62583538  0.52558945    -0.81000
O269        O  0.91272971  0.45308679  0.42591008    -0.82800
O270        O  0.76361984  0.61607677  0.57181238    -0.78400
O271        O  0.91698374  0.53020214  0.43989817    -0.90000
O272        O  0.91287937  0.47318465  0.59769145    -0.76000
O273        O  0.81778969  0.52890281  0.57330936    -0.85500
O274        O  0.86938655  0.46792682  0.51395631    -0.85200
O275        O  0.77573198  0.56145752  0.48750813    -0.71900
O276        O  0.82667552  0.50816994  0.43229431    -0.84100
Zr277      Zr  0.72200920  0.42212614  0.50635932     2.26400
Zr278      Zr  0.73626974  0.53921032  0.55952283     2.06300
Zr279      Zr  0.83787294  0.42772942  0.44809040     2.10000
Zr280      Zr  0.83293723  0.44937693  0.58671589     1.78800
O281        O  0.83945505  0.41950993  0.36195293    -0.92900
O282        O  0.83142793  0.48350687  0.66589944    -0.40700
O283        O  0.80165093  0.40652346  0.52087777    -0.77300
O284        O  0.75171056  0.46051233  0.57528149    -0.96000
O285        O  0.70669998  0.50094947  0.49170564    -0.89300
O286        O  0.75910520  0.44208770  0.43399027    -0.92100
C287        C  0.93856551  0.50606288  0.58236216     1.01600
C288        C  0.93278796  0.49199749  0.42242912     1.14500
C289        C  0.79316429  0.64144110  0.55077620     1.05300
O290        O  0.73428794  0.54632551  0.64560082    -0.94300
O291        O  0.65923197  0.50864445  0.58059800    -0.90000
O292        O  0.65183835  0.43645248  0.55027799    -0.83200
C293        C  0.63611703  0.47113621  0.57335405     1.12000
O294        O  0.77170747  0.58717566  0.37365186    -0.96300
Zr295      Zr  0.74594281  0.52160245  0.42069144     1.88900
O296        O  0.66210840  0.42554702  0.44725594    -0.72900
O297        O  0.67499991  0.59473209  0.54491402    -0.52200
O298        O  0.68928579  0.58338001  0.42034158    -0.96900
O299        O  0.75793976  0.50193284  0.33733148    -0.54100
O300        O  0.67492086  0.48511187  0.39678610    -0.73400
C301        C  0.65162485  0.45037629  0.41125810     0.98900
O302        O  0.69786089  0.35542624  0.55268042    -0.62300
O303        O  0.89239165  0.36552089  0.46213807    -0.57100
O304        O  0.73506747  0.35029323  0.46497913    -0.93700
O305        O  0.80602861  0.35283471  0.43146733    -0.92200
O306        O  0.87920832  0.37998910  0.59511540    -0.92500
O307        O  0.80177267  0.39466081  0.64386393    -0.91300
C308        C  0.76826914  0.33232402  0.44138225     1.17800
H309        H  0.90154523  0.46007808  0.51435587     0.33700
H310        H  0.73506087  0.45083567  0.60327063     0.44500
H311        H  0.74803994  0.42382781  0.40762231     0.38100
H312        H  0.76893419  0.59300732  0.47964213     0.34600
H313        H  0.85667720  0.46798315  0.68315684     0.26300
H314        H  0.67358052  0.61424900  0.57376098     0.32300
H315        H  0.67744032  0.58407225  0.38739154     0.38200
H316        H  0.89514000  0.38369432  0.62596676     0.32600
H317        H  0.90775766  0.36043787  0.43118451     0.31500
H318        H  0.86032678  0.44403465  0.35046938     0.33200
H319        H  0.73393005  0.51925718  0.31999834     0.32200
H320        H  0.77893519  0.37648399  0.62566682     0.36200
H321        H  0.72579423  0.33613951  0.55542635     0.28900
H322        H  0.91216674  0.63042414  0.50064187     0.33100
H323        H  0.80073186  0.59716862  0.38889922     0.36000
H324        H  0.91650076  0.37897405  0.48275432     0.28600
H325        H  0.69304541  0.36722760  0.58532445     0.41500
H326        H  0.70614127  0.56438972  0.65223466     0.31500
H327        H  0.84241170  0.51553956  0.66173994     0.39100
H328        H  0.74840449  0.46930908  0.33432386     0.31000
H329        H  0.68691251  0.61528080  0.51971864     0.31100
H330        H  0.88119553  0.63317153  0.45485417     0.31300
Zr331      Zr  0.65822999  0.92179787  0.50498535     2.17500
O332        O  0.61411887  0.85816361  0.47109047    -0.51000
O333        O  0.59103187  0.92878602  0.55822002    -0.74200
O334        O  0.68746289  0.84325063  0.52717240    -0.81000
O335        O  0.60161035  0.01819557  0.43256256    -0.82800
O336        O  0.75442132  0.85178189  0.56827481    -0.78400
O337        O  0.60053328  0.94033031  0.44229953    -0.90000
O338        O  0.60090036  0.99309704  0.60329054    -0.76000
O339        O  0.69586904  0.93973670  0.57883396    -0.85500
O340        O  0.64416198  0.00153487  0.52066883    -0.85200
O341        O  0.74002225  0.90968080  0.49252376    -0.71900
O342        O  0.68808179  0.96503066  0.43860058    -0.84100
Zr343      Zr  0.79121690  0.04933065  0.51534772     2.26400
Zr344      Zr  0.77754266  0.93103170  0.56613011     2.06300
Zr345      Zr  0.67553748  0.04489941  0.45700034     2.10000
Zr346      Zr  0.67998675  0.01896585  0.59419277     1.78800
O347        O  0.66876623  0.05580069  0.37157274    -0.92900
O348        O  0.67846073  0.98354863  0.67262467    -0.40700
O349        O  0.71154329  0.06434996  0.53048259    -0.77300
O350        O  0.76164977  0.00941121  0.58351128    -0.96000
O351        O  0.80674390  0.97069270  0.49904836    -0.89300
O352        O  0.75435689  0.03086091  0.44252700    -0.92100
C353        C  0.57600425  0.96020295  0.58678808     1.01600
C354        C  0.58367348  0.97850723  0.42610357     1.14500
C355        C  0.72307011  0.82709760  0.54941099     1.05300
O356        O  0.76951028  0.93207078  0.65214619    -0.94300
O357        O  0.85769304  0.95812610  0.57704777    -0.90000
O358        O  0.86287738  0.03300934  0.55518168    -0.83200
C359        C  0.88038933  0.99617813  0.57240585     1.12000
O360        O  0.74105600  0.88462001  0.38302973    -0.96300
Zr361      Zr  0.76846393  0.95182041  0.42693596     1.88900
O362        O  0.85082253  0.04840312  0.45542326    -0.72900
O363        O  0.84032973  0.87689270  0.58016884    -0.52200
O364        O  0.82808775  0.89315506  0.42142537    -0.96900
O365        O  0.75363490  0.97281913  0.34453301    -0.54100
O366        O  0.83793689  0.99037541  0.40287898    -0.73400
C367        C  0.86110867  0.02480302  0.41831442     0.98900
O368        O  0.81560076  0.11334604  0.56559786    -0.62300
O369        O  0.62295839  0.10715367  0.47770765    -0.57100
O370        O  0.77788606  0.12201507  0.47556973    -0.93700
O371        O  0.70886241  0.11899171  0.43824993    -0.92200
O372        O  0.63381543  0.08872673  0.60043791    -0.92500
O373        O  0.70625887  0.07090225  0.65666172    -0.91300
C374        C  0.74627699  0.13961864  0.44950601     1.17800
H375        H  0.61185556  0.00878227  0.52087213     0.33700
H376        H  0.77807762  0.01883576  0.61178408     0.44500
H377        H  0.76539520  0.04967282  0.41666912     0.38100
H378        H  0.74741280  0.87862440  0.48320461     0.34600
H379        H  0.65087624  0.99664612  0.68823351     0.26300
H380        H  0.83101739  0.85743922  0.60738554     0.32300
H381        H  0.84068821  0.89085613  0.45398515     0.38200
H382        H  0.61211397  0.08275509  0.62683185     0.32600
H383        H  0.61099839  0.11825343  0.44687162     0.31500
H384        H  0.66552876  0.02431699  0.35837013     0.33200
H385        H  0.77923364  0.95886247  0.32632997     0.32200
H386        H  0.73395963  0.08601814  0.64343358     0.36200
H387        H  0.78857904  0.13401573  0.56723029     0.28900
H388        H  0.60320045  0.83975144  0.49843270     0.33100
H389        H  0.76376200  0.87932603  0.35739336     0.36000
H390        H  0.59633458  0.09190465  0.49296234     0.28600
H391        H  0.81767159  0.10017674  0.59793504     0.41500
H392        H  0.80147324  0.93072893  0.66413624     0.31500
H393        H  0.67041380  0.95083237  0.66703801     0.39100
H394        H  0.75948541  0.00637359  0.34281980     0.31000
H395        H  0.84088168  0.85597863  0.55233292     0.31100
H396        H  0.63659025  0.83828803  0.45437159     0.31300
Zr397      Zr  0.07222023  0.33141293  0.20114638     2.17500
O398        O  0.13500029  0.38442801  0.21936613    -0.51000
O399        O  0.06115385  0.39651324  0.14543609    -0.74200
O400        O  0.14921763  0.29907225  0.18007952    -0.81000
O401        O  0.98002982  0.39221151  0.26997032    -0.82800
O402        O  0.13821154  0.23922227  0.12909025    -0.78400
O403        O  0.05729298  0.38240587  0.27094990    -0.90000
O404        O  0.00150838  0.38058121  0.09605784    -0.76000
O405        O  0.05480514  0.28721157  0.13129775    -0.85500
O406        O  0.99278724  0.34406556  0.18401574    -0.85200
O407        O  0.08586942  0.25072200  0.21986797    -0.71900
O408        O  0.02956112  0.30549017  0.26944321    -0.84100
Zr409      Zr  0.94654677  0.19645976  0.20021111     2.26400
Zr410      Zr  0.06525796  0.20657616  0.15013381     2.06300
Zr411      Zr  0.95009716  0.31721326  0.25039440     2.10000
Zr412      Zr  0.97626109  0.30194114  0.11373690     1.78800
O413        O  0.93994508  0.33048348  0.33515764    -0.92900
O414        O  0.01159069  0.29166965  0.03595619    -0.40700
O415        O  0.93141785  0.27526885  0.17996394    -0.77300
O416        O  0.98725520  0.22161405  0.13109004    -0.96000
O417        O  0.02465300  0.18173940  0.21839625    -0.89300
O418        O  0.96414427  0.23906979  0.27017725    -0.92100
C419        C  0.03195148  0.40829418  0.11309410     1.01600
C420        C  0.02023230  0.40370376  0.28391920     1.14500
C421        C  0.16411602  0.26615273  0.15293553     1.05300
O422        O  0.07234211  0.19227019  0.06520206    -0.94300
O423        O  0.03590273  0.12769292  0.13398867    -0.90000
O424        O  0.96255613  0.12351091  0.16106269    -0.83200
C425        C  0.99768768  0.10563415  0.14046487     1.12000
O426        O  0.10734315  0.25579550  0.33300025    -0.96300
Zr427      Zr  0.04295605  0.22606005  0.28696086     1.88900
O428        O  0.94858686  0.13971037  0.26252778    -0.72900
O429        O  0.12426197  0.15143531  0.17355565    -0.52200
O430        O  0.10406864  0.16972990  0.29761898    -0.96900
O431        O  0.02001217  0.24637633  0.36760542    -0.54100
O432        O  0.00580211  0.15681884  0.31451049    -0.73400
C433        C  0.97217023  0.13196850  0.30010999     0.98900
O434        O  0.88138829  0.17052924  0.15262336    -0.62300
O435        O  0.89035045  0.37195916  0.22826670    -0.57100
O436        O  0.87402218  0.21052497  0.23964973    -0.93700
O437        O  0.87519065  0.28396648  0.26758742    -0.92200
O438        O  0.90545271  0.34520896  0.10241403    -0.92500
O439        O  0.92377038  0.26714726  0.05660755    -0.91300
C440        C  0.85521281  0.24503760  0.26052444     1.17800
H441        H  0.98503937  0.37618462  0.18121771     0.33700
H442        H  0.97829936  0.20318966  0.10393729     0.44500
H443        H  0.94519421  0.22958612  0.29658678     0.38100
H444        H  0.11712881  0.24425581  0.22914215     0.34600
H445        H  0.99437134  0.31259401  0.01471074     0.26300
H446        H  0.14269924  0.14608634  0.14450145     0.32300
H447        H  0.09697726  0.14490384  0.27458059     0.38200
H448        H  0.90970860  0.36150790  0.07187891     0.32600
H449        H  0.88384466  0.38948377  0.25772498     0.31500
H450        H  0.91311700  0.35134800  0.33739701     0.33200
H451        H  0.03107486  0.22051999  0.38740756     0.32200
H452        H  0.90411408  0.24644362  0.07579654     0.36200
H453        H  0.86106174  0.19775886  0.15001209     0.28900
H454        H  0.15265611  0.38782375  0.18950162     0.33100
H455        H  0.11187497  0.28758104  0.32114795     0.36000
H456        H  0.90572176  0.39444677  0.20715779     0.28600
H457        H  0.89388370  0.16662314  0.12014706     0.41500
H458        H  0.10575284  0.19262756  0.05850902     0.31500
H459        H  0.04241130  0.30591357  0.03869154     0.39100
H460        H  0.98612204  0.24346275  0.36825457     0.31000
H461        H  0.14503598  0.16860035  0.19510767     0.31100
H462        H  0.15561453  0.36740753  0.24109936     0.31300
Zr463      Zr  0.44465749  0.13579512  0.20213319     2.17500
O464        O  0.38206440  0.08439677  0.22513587    -0.51000
O465        O  0.45540281  0.06927947  0.14784268    -0.74200
O466        O  0.36680759  0.16528805  0.17907158    -0.81000
O467        O  0.53741547  0.07952835  0.27706464    -0.82800
O468        O  0.37494979  0.23120284  0.13582596    -0.78400
O469        O  0.45966166  0.08342870  0.27056246    -0.90000
O470        O  0.51794593  0.08211720  0.10181862    -0.76000
O471        O  0.46406981  0.17564036  0.13007227    -0.85500
O472        O  0.52464433  0.12266430  0.18855885    -0.85200
O473        O  0.43082564  0.21723581  0.21636439    -0.71900
O474        O  0.48506729  0.16593779  0.27033513    -0.84100
Zr475      Zr  0.56936607  0.27191143  0.19794766     2.26400
Zr476      Zr  0.45271696  0.25702910  0.14436025     2.06300
Zr477      Zr  0.56530098  0.15417974  0.25443922     2.10000
Zr478      Zr  0.54379551  0.16087252  0.11695747     1.78800
O479        O  0.57331583  0.14927543  0.34035085    -0.92900
O480        O  0.51717980  0.16048207  0.03494745    -0.40700
O481        O  0.58590139  0.19238644  0.18269453    -0.77300
O482        O  0.53149237  0.24236153  0.12842601    -0.96000
O483        O  0.49041149  0.28651651  0.21268544    -0.89300
O484        O  0.55021379  0.23314742  0.26958979    -0.92100
C485        C  0.48568594  0.05580298  0.11723257     1.01600
C486        C  0.49703479  0.06485476  0.28656622     1.14500
C487        C  0.35054111  0.19986607  0.15522952     1.05300
O488        O  0.45488437  0.25389909  0.05802236    -0.94300
O489        O  0.47945829  0.33766456  0.13279020    -0.90000
O490        O  0.55259742  0.34433339  0.15948929    -0.83200
C491        C  0.51661665  0.36119652  0.13994525     1.12000
O492        O  0.40577392  0.21863921  0.33019898    -0.96300
Zr493      Zr  0.47081976  0.24634594  0.28340145     1.88900
O494        O  0.56690313  0.33066088  0.25871036    -0.72900
O495        O  0.38907603  0.31163772  0.14026879    -0.52200
O496        O  0.40911640  0.30318363  0.28328161    -0.96900
O497        O  0.49092225  0.23209629  0.36619315    -0.54100
O498        O  0.50729973  0.31695985  0.30888071    -0.73400
C499        C  0.54195444  0.34056935  0.29487495     0.98900
O500        O  0.63266259  0.29850307  0.14820202    -0.62300
O501        O  0.62663322  0.09929884  0.23770788    -0.57100
O502        O  0.64229518  0.25915976  0.23727747    -0.93700
O503        O  0.64033248  0.18776176  0.27004940    -0.92200
O504        O  0.61563504  0.11779815  0.11798577    -0.92500
O505        O  0.60083077  0.18914831  0.06080846    -0.91300
C506        C  0.66072326  0.22588797  0.26042343     1.17800
H507        H  0.53215885  0.09033133  0.18738407     0.33700
H508        H  0.54128373  0.25927057  0.10060953     0.44500
H509        H  0.56851448  0.24407098  0.29593403     0.38100
H510        H  0.39946433  0.22399034  0.22484590     0.34600
H511        H  0.53437467  0.13502802  0.01961386     0.26300
H512        H  0.39374064  0.32926100  0.11057999     0.32300
H513        H  0.41494268  0.32282250  0.31144251     0.38200
H514        H  0.60661762  0.08495601  0.11610368     0.32600
H515        H  0.63447968  0.08587119  0.26895986     0.31500
H516        H  0.60346519  0.13425931  0.34540198     0.33200
H517        H  0.47574024  0.25709062  0.38431870     0.32200
H518        H  0.62033975  0.21032432  0.07969442     0.36200
H519        H  0.65310684  0.27142505  0.14491089     0.28900
H520        H  0.36472202  0.07781837  0.19564026     0.33100
H521        H  0.39715306  0.24426281  0.35169747     0.36000
H522        H  0.61176276  0.07380479  0.22003228     0.28600
H523        H  0.61921375  0.30223904  0.11614182     0.41500
H524        H  0.42515229  0.26724905  0.04793171     0.31500
H525        H  0.48510449  0.14914613  0.03656641     0.39100
H526        H  0.52411662  0.23922943  0.36862816     0.31000
H527        H  0.39470933  0.33405404  0.16619372     0.31100
H528        H  0.36109450  0.10321641  0.24495153     0.31300
C529        C  0.27847537  0.22210432  0.19688052     0.23900
C530        C  0.30064779  0.20961078  0.15435183    -0.24200
C531        C  0.27874338  0.21932706  0.11097182     0.18800
C532        C  0.23518430  0.24006251  0.11019667     0.23800
C533        C  0.21337788  0.25332191  0.15278538    -0.24200
C534        C  0.23525127  0.24351706  0.19610704     0.18700
F535        F  0.21371700  0.25265346  0.23786505    -0.14100
F536        F  0.29980774  0.21581466  0.23922876    -0.16500
F537        F  0.21411981  0.24700647  0.06778450    -0.16500
F538        F  0.30007906  0.20948343  0.06926548    -0.14100
C539        C  0.78579674  0.19640275  0.27796776     0.23900
C540        C  0.80623167  0.24031386  0.27430983    -0.24200
C541        C  0.77789721  0.27954893  0.27708535     0.18800
C542        C  0.73010747  0.27488649  0.27680677     0.23800
C543        C  0.70970088  0.23092696  0.27408229    -0.24200
C544        C  0.73799441  0.19176262  0.27803439     0.18700
F545        F  0.71979321  0.14865747  0.27760612    -0.14100
F546        F  0.81192566  0.15763134  0.27844015    -0.16500
F547        F  0.70393193  0.31360641  0.27636223    -0.16500
F548        F  0.79607656  0.32263970  0.27569159    -0.14100
C549        C  0.52350802  0.98720052  0.31135552     0.23900
C550        C  0.49632756  0.02634691  0.32116292    -0.24200
C551        C  0.48601526  0.03647322  0.36879318     0.18800
C552        C  0.50856209  0.01290538  0.40553601     0.23800
C553        C  0.54250071  0.97965746  0.39514197    -0.24200
C554        C  0.54669779  0.96415657  0.34809807     0.18700
F555        F  0.57897231  0.93217875  0.33682373    -0.14100
F556        F  0.53312741  0.97575797  0.26565184    -0.16500
F557        F  0.50313782  0.02797430  0.45090693    -0.16500
F558        F  0.46038821  0.07412209  0.37970680    -0.14100
C559        C  0.96106283  0.09745923  0.38011658     0.23900
C560        C  0.95669673  0.09389900  0.33052454    -0.24200
C561        C  0.92981712  0.05826098  0.31113335     0.18800
C562        C  0.90184431  0.03175684  0.34048953     0.23800
C563        C  0.90039393  0.04080045  0.38965561    -0.24200
C564        C  0.93282293  0.07127836  0.40950269     0.18700
F565        F  0.93478155  0.07848512  0.45713628    -0.14100
F566        F  0.98892040  0.12957528  0.40026800    -0.16500
F567        F  0.87302486  0.00071021  0.31999171    -0.16500
F568        F  0.92783264  0.05149426  0.26341391    -0.14100
C569        C  0.57890934  0.40567105  0.40283767     0.23900
C570        C  0.61208619  0.43503670  0.38262725    -0.24200
C571        C  0.61200470  0.44200329  0.33318239     0.18800
C572        C  0.58444055  0.41455819  0.30417517     0.23800
C573        C  0.55689314  0.37981766  0.32422473    -0.24200
C574        C  0.55141510  0.37821277  0.37380858     0.18700
F575        F  0.52353572  0.34650714  0.39449871    -0.14100
F576        F  0.57598908  0.40034956  0.45066453    -0.16500
F577        F  0.58777712  0.41921659  0.25630275    -0.16500
F578        F  0.64224580  0.47134095  0.31231879    -0.14100
C579        C  0.99547519  0.48177764  0.30988313     0.23900
C580        C  0.02074720  0.44143442  0.31967459    -0.24200
C581        C  0.02968798  0.43049927  0.36735047     0.18800
C582        C  0.00698470  0.45444052  0.40393298     0.23800
C583        C  0.97523149  0.48977549  0.39332885    -0.24200
C584        C  0.97328123  0.50609034  0.34652959     0.18700
F585        F  0.94357825  0.54036892  0.33514903    -0.14100
F586        F  0.98669249  0.49358149  0.26416841    -0.16500
F587        F  0.00977153  0.43790895  0.44894407    -0.16500
F588        F  0.05402560  0.39203764  0.37822872    -0.14100
C589        C  0.76130379  0.71040666  0.59307260     0.23900
C590        C  0.78160514  0.69140087  0.55190166    -0.24200
C591        C  0.77873656  0.71651127  0.50929096     0.18800
C592        C  0.75508913  0.75876705  0.50771164     0.23800
C593        C  0.73445680  0.77737717  0.54876344    -0.24200
C594        C  0.73907978  0.75329276  0.59173003     0.18700
F595        F  0.72281615  0.77182993  0.63272804    -0.14100
F596        F  0.76245186  0.68691422  0.63471139    -0.16500
F597        F  0.75415153  0.78272784  0.46637083    -0.16500
F598        F  0.79706842  0.69925636  0.46863230    -0.14100
C599        C  0.72022906  0.26377498  0.42180987     0.23900
C600        C  0.76390854  0.28349714  0.42825412    -0.24200
C601        C  0.80269083  0.25472907  0.43055039     0.18800
C602        C  0.79718539  0.20715644  0.43329530     0.23800
C603        C  0.75286148  0.18761615  0.43345202    -0.24200
C604        C  0.71470467  0.21607900  0.42402637     0.18700
F605        F  0.67152058  0.19848202  0.42131166    -0.14100
F606        F  0.68245210  0.29083608  0.41684922    -0.16500
F607        F  0.83516470  0.18055698  0.43905194    -0.16500
F608        F  0.84562180  0.27257541  0.43542058    -0.14100
C609        C  0.51148174  0.50350345  0.59803181     0.23900
C610        C  0.49098346  0.46100198  0.61088832    -0.24200
C611        C  0.51992737  0.42214880  0.61437331     0.18800
C612        C  0.56726259  0.42549850  0.60360959     0.23800
C613        C  0.58723804  0.46801519  0.59017433    -0.24200
C614        C  0.55863827  0.50689543  0.58816754     0.18700
F615        F  0.57587957  0.54823865  0.57436726    -0.14100
F616        F  0.48602317  0.54258406  0.59528544    -0.16500
F617        F  0.59359043  0.38698608  0.60638318    -0.16500
F618        F  0.50241216  0.38062597  0.62722160    -0.14100
C619        C  0.01085459  0.46159296  0.60248264     0.23900
C620        C  0.98881713  0.50443672  0.59523852    -0.24200
C621        C  0.01597908  0.54455604  0.59801159     0.18800
C622        C  0.06307297  0.54207067  0.60981389     0.23800
C623        C  0.08486832  0.49917903  0.61825479    -0.24200
C624        C  0.05786247  0.45904226  0.61399281     0.18700
F625        F  0.07658673  0.41696132  0.62202716    -0.14100
F626        F  0.98721138  0.42157502  0.59695270    -0.16500
F627        F  0.08738446  0.58195207  0.61243989    -0.16500
F628        F  0.99690195  0.58645151  0.58976224    -0.14100
C629        C  0.00457628  0.96008018  0.59771767     0.23900
C630        C  0.02655697  0.00262724  0.60777245    -0.24200
C631        C  0.99950181  0.04278358  0.60678253     0.18800
C632        C  0.95219350  0.04056910  0.59628923     0.23800
C633        C  0.93026389  0.99802069  0.58645358    -0.24200
C634        C  0.95728178  0.95782102  0.58771505     0.18700
F635        F  0.93823592  0.91601464  0.57847974    -0.14100
F636        F  0.02856974  0.91997828  0.59840289    -0.16500
F637        F  0.92771228  0.08036724  0.59657763    -0.16500
F638        F  0.01893605  0.08454340  0.61515260    -0.14100
C639        C  0.45595617  0.00733351  0.61076514     0.23900
C640        C  0.42997039  0.96722497  0.61930553    -0.24200
C641        C  0.45290400  0.92414316  0.61664052     0.18800
C642        C  0.50007843  0.92150190  0.60589145     0.23800
C643        C  0.52594001  0.96171264  0.59850145    -0.24200
C644        C  0.50307564  0.00458381  0.60042105     0.18700
F645        F  0.52620861  0.04421164  0.59105980    -0.14100
F646        F  0.43624494  0.04962022  0.61368159    -0.16500
F647        F  0.52065168  0.87957395  0.60380077    -0.16500
F648        F  0.42984286  0.88419574  0.62457841    -0.14100
C649        C  0.26511258  0.25376432  0.69440275     0.23900
C650        C  0.27874846  0.27528698  0.65192225    -0.24200
C651        C  0.26844367  0.25327471  0.60860543     0.18800
C652        C  0.24724149  0.20973691  0.60789963     0.23800
C653        C  0.23305473  0.18839546  0.65038556    -0.24200
C654        C  0.24177067  0.21128759  0.69361403     0.18700
F655        F  0.22933261  0.19160324  0.73538265    -0.14100
F656        F  0.27254264  0.27498616  0.73673525    -0.16500
F657        F  0.24057892  0.18825142  0.56557572    -0.16500
F658        F  0.27848033  0.27432198  0.56684909    -0.14100
C659        C  0.29865860  0.76180991  0.77609623     0.23900
C660        C  0.25431372  0.78126584  0.77491816    -0.24200
C661        C  0.21582907  0.75219660  0.77920115     0.18800
C662        C  0.22144379  0.70446137  0.77856884     0.23800
C663        C  0.26553846  0.68504608  0.77357360    -0.24200
C664        C  0.30423674  0.71408358  0.77568462     0.18700
F665        F  0.34747784  0.69668034  0.77301981    -0.14100
F666        F  0.33674321  0.78891684  0.77436568    -0.16500
F667        F  0.18345935  0.67725939  0.78013935    -0.16500
F668        F  0.17249932  0.76959897  0.77945317    -0.14100
C669        C  0.52112000  0.98904707  0.07082425     0.23900
C670        C  0.48598034  0.00595022  0.10119116    -0.24200
C671        C  0.45385998  0.97359461  0.11891904     0.18800
C672        C  0.45736266  0.92640256  0.10746675     0.23800
C673        C  0.49356857  0.90978016  0.07898642    -0.24200
C674        C  0.52502387  0.94174566  0.06040956     0.18700
F675        F  0.55875735  0.92735838  0.03051321    -0.14100
F676        F  0.55209199  0.01815657  0.05081876    -0.16500
F677        F  0.42555626  0.89664610  0.12493547    -0.16500
F678        F  0.41896493  0.98729663  0.14766990    -0.14100
C679        C  0.56119038  0.43362118  0.11834115     0.23900
C680        C  0.51852237  0.41123934  0.12599272    -0.24200
C681        C  0.47825270  0.43798717  0.12263713     0.18800
C682        C  0.48052526  0.48533665  0.11231946     0.23800
C683        C  0.52311241  0.50746882  0.10390553    -0.24200
C684        C  0.56336155  0.48079834  0.10702636     0.18700
F685        F  0.60513318  0.50051141  0.09985550    -0.14100
F686        F  0.60121685  0.40977199  0.12118030    -0.16500
F687        F  0.44052268  0.50925356  0.10944901    -0.16500
F688        F  0.43638916  0.41866764  0.13028074    -0.14100
C689        C  0.45761458  0.45592734  0.87020948     0.23900
C690        C  0.46644658  0.46520135  0.82212930    -0.24200
C691        C  0.50461213  0.49319679  0.81096231     0.18800
C692        C  0.52741424  0.51838635  0.84666869     0.23800
C693        C  0.51236408  0.51579539  0.89400774    -0.24200
C694        C  0.48021138  0.48123982  0.90589018     0.18700
F695        F  0.46527093  0.47739153  0.95140660    -0.14100
F696        F  0.42156783  0.42861868  0.88235220    -0.16500
F697        F  0.55857265  0.55093026  0.83388843    -0.16500
F698        F  0.51455985  0.50227118  0.76480199    -0.14100
C699        C  0.46461475  0.87516272  0.82799970     0.23900
C700        C  0.45933084  0.87795316  0.87760544    -0.24200
C701        C  0.43239647  0.91356143  0.89697036     0.18800
C702        C  0.40460940  0.94012812  0.86751905     0.23800
C703        C  0.40401951  0.93168278  0.81830185    -0.24200
C704        C  0.43688918  0.90174901  0.79851363     0.18700
F705        F  0.43957460  0.89540239  0.75077493    -0.14100
F706        F  0.49284705  0.84343273  0.80782462    -0.16500
F707        F  0.37483719  0.97033164  0.88782743    -0.16500
F708        F  0.43014966  0.92019535  0.94467941    -0.14100
C709        C  0.06419005  0.53540904  0.09415351     0.23900
C710        C  0.02208718  0.55490291  0.07937961    -0.24200
C711        C  0.98418380  0.52528132  0.07356848     0.18800
C712        C  0.98807248  0.47773062  0.08244723     0.23800
C713        C  0.03000975  0.45811173  0.09798949    -0.24200
C714        C  0.06803492  0.48787850  0.10356631     0.18700
F715        F  0.10922475  0.47106607  0.11804687    -0.14100
F716        F  0.10169286  0.56263055  0.10049622    -0.16500
F717        F  0.94995018  0.45120048  0.07718577    -0.16500
F718        F  0.94333619  0.54212964  0.05810377    -0.14100
C719        C  0.94549058  0.98828789  0.10494377     0.23900
C720        C  0.98469309  0.96028560  0.09987784    -0.24200
C721        C  0.02823587  0.98137279  0.10552394     0.18800
C722        C  0.03251656  0.02846409  0.11668871     0.23800
C723        C  0.99337399  0.05613393  0.12415358    -0.24200
C724        C  0.94969136  0.03520044  0.11773229     0.18700
F725        F  0.91064012  0.06018617  0.12347946    -0.14100
F726        F  0.90290178  0.97012868  0.09861260    -0.16500
F727        F  0.07535858  0.04656704  0.12107911    -0.16500
F728        F  0.06728732  0.95651680  0.09915554    -0.14100
C729        C  0.11279238  0.52712116  0.86611674     0.23900
C730        C  0.11284088  0.53542405  0.81688696    -0.24200
C731        C  0.08001915  0.56550706  0.79758447     0.18800
C732        C  0.05268406  0.59221826  0.82750115     0.23800
C733        C  0.05857592  0.58962561  0.87706767    -0.24200
C734        C  0.08616254  0.55448405  0.89606142     0.18700
F735        F  0.08995624  0.54885022  0.94376587    -0.14100
F736        F  0.14195360  0.49608923  0.88588615    -0.16500
F737        F  0.02417796  0.62382904  0.80773306    -0.16500
F738        F  0.07690902  0.57169684  0.74988167    -0.14100
C739        C  0.02123044  0.98048505  0.90001101     0.23900
C740        C  0.99246037  0.94315524  0.88773338    -0.24200
C741        C  0.98291081  0.93598277  0.83932024     0.18800
C742        C  0.00766759  0.96011848  0.80424044     0.23800
C743        C  0.04257499  0.99167537  0.81690894    -0.24200
C744        C  0.04653359  0.00410044  0.86501963     0.18700
F745        F  0.08050570  0.03325277  0.87891454    -0.14100
F746        F  0.03082571  0.98872297  0.94644500    -0.16500
F747        F  0.00305757  0.94701221  0.75815630    -0.16500
F748        F  0.95546379  0.90039389  0.82591782    -0.14100
C749        C  0.77701384  0.73910291  0.09770873     0.23900
C750        C  0.79826058  0.75193903  0.05468276    -0.24200
C751        C  0.77488516  0.74282159  0.01196547     0.18800
C752        C  0.73134773  0.72171822  0.01214351     0.23800
C753        C  0.70973936  0.70956398  0.05509113    -0.24200
C754        C  0.73276684  0.71938036  0.09797230     0.18700
F755        F  0.71239493  0.70969705  0.14018848    -0.14100
F756        F  0.79949367  0.74509037  0.13952631    -0.16500
F757        F  0.70940929  0.71487087  0.97018713    -0.16500
F758        F  0.79537442  0.75211376  0.96972863    -0.14100
C759        C  0.22769018  0.69658147  0.92479118     0.23900
C760        C  0.20786396  0.74051389  0.93012062    -0.24200
C761        C  0.23636478  0.77966080  0.92688347     0.18800
C762        C  0.28407638  0.77464511  0.92486408     0.23800
C763        C  0.30408955  0.73051339  0.92658048    -0.24200
C764        C  0.27535223  0.69157654  0.92299684     0.18700
F765        F  0.29306954  0.64831624  0.92192940    -0.14100
F766        F  0.20107316  0.65810625  0.92396972    -0.16500
F767        F  0.31073088  0.81310064  0.92410049    -0.16500
F768        F  0.21861082  0.82284679  0.92962085    -0.14100
loop_ 
_geom_bond_atom_site_label_1 
_geom_bond_atom_site_label_2 
_geom_bond_distance 
_geom_bond_site_symmetry_2 
_ccdc_geom_bond_type 
Zr1           O2   2.438   1_554  S
Zr1           O3   2.487       .  S
Zr1           O4   2.519       .  S
Zr1           O7   2.507   1_554  S
Zr1           O9   2.404       .  S
Zr1          O10   2.390   1_655  S
Zr1          O11   2.429   1_554  S
Zr1          O12   2.412   1_554  S
O2           H58   0.990   1_556  S
O2           H66   0.990       .  S
O3           C23   1.294       .  A
O4           C25   1.301       .  A
O5          Zr15   2.391       .  S
O5           C24   1.277   1_455  A
O6          Zr14   2.396       .  S
O6           C25   1.278       .  A
O7           C24   1.298       .  A
O8          Zr16   2.441       .  S
O8           C23   1.286   1_455  A
O9          Zr14   2.420       .  S
O9          Zr16   2.379   1_655  S
O10         Zr15   2.374   1_554  S
O10         Zr16   2.377       .  S
O10          H45   0.963       .  S
O11         Zr14   2.417   1_556  S
O11         Zr31   2.371       .  S
O11          H48   0.965       .  S
O12         Zr15   2.397   1_655  S
O12         Zr31   2.393       .  S
Zr13         O38   2.440       .  S
Zr13         O32   2.427   1_554  S
Zr13         O40   2.423   1_554  S
Zr13         O28   2.419       .  S
Zr13         O19   2.401       .  S
Zr13         O20   2.405       .  S
Zr13         O21   2.371   1_454  S
Zr13         O22   2.375   1_554  S
Zr14         O33   2.438       .  S
Zr14         O26   2.435       .  S
Zr14         O27   2.486       .  S
Zr14         O20   2.377   1_655  S
Zr14         O21   2.373   1_554  S
Zr15         O17   2.433       .  S
Zr15         O39   2.438       .  S
Zr15         O41   2.420       .  S
Zr15         O19   2.387   1_556  S
Zr15         O22   2.367       .  S
Zr16         O42   2.438       .  S
Zr16         O43   2.439       .  S
Zr16         O18   2.441   1_455  S
Zr16         O19   2.411       .  S
Zr16         O20   2.411       .  S
O17          H54   0.990       .  S
O18          H49   0.990   1_655  S
O18          H63   0.990       .  S
O20          H46   0.967       .  S
O21         Zr31   2.378       .  S
O22         Zr31   2.374   1_455  S
O22          H47   0.967       .  S
C23         C720   1.507       .  S
C24         C740   1.489       .  S
C25         C750   1.488       .  S
O26          H62   0.990       .  S
O27          C29   1.294   1_655  A
O28          C29   1.282       .  A
C29         C710   1.502       .  S
O30         Zr31   2.436       .  S
O30          H59   0.990       .  S
Zr31         O34   2.437       .  S
Zr31         O35   2.438       .  S
Zr31         O36   2.407   1_655  S
O32          C37   1.285       .  A
O33          H50   0.990       .  S
O33          H65   0.990       .  S
O34          H51   0.990       .  S
O35          H55   0.990       .  S
O35          H64   0.990   1_655  S
O36          C37   1.279       .  A
C37         C733   1.472       .  S
O38          H57   0.990       .  S
O38          H61   0.990       .  S
O39          H53   0.990       .  S
O39          H60   0.990       .  S
O40          C44   1.284       .  A
O41          C44   1.282       .  A
O42          H52   0.990       .  S
O43          H56   0.991       .  S
C44         C760   1.480       .  S
Zr67         O68   2.440   1_554  S
Zr67         O69   2.474       .  S
Zr67         O70   2.511       .  S
Zr67         O73   2.498   1_554  S
Zr67         O75   2.400       .  S
Zr67         O76   2.390       .  S
Zr67         O77   2.429   1_554  S
Zr67         O78   2.416   1_554  S
O68         H124   0.990   1_556  S
O68         H132   0.990       .  S
O69          C89   1.292       .  A
O70          C91   1.299       .  A
O71         Zr81   2.400       .  S
O71          C90   1.278       .  A
O72         Zr80   2.408       .  S
O72          C91   1.277       .  A
O73          C90   1.296       .  A
O74         Zr82   2.437       .  S
O74          C89   1.285       .  A
O75         Zr80   2.420       .  S
O75         Zr82   2.382       .  S
O76         Zr81   2.377   1_554  S
O76         Zr82   2.375       .  S
O76         H111   0.963       .  S
O77         Zr80   2.419   1_556  S
O77         Zr97   2.374       .  S
O77         H114   0.964       .  S
O78         Zr81   2.402       .  S
O78         Zr97   2.399       .  S
Zr79        O104   2.441       .  S
Zr79         O98   2.418   1_554  S
Zr79        O106   2.422   1_554  S
Zr79         O94   2.424       .  S
Zr79         O85   2.398       .  S
Zr79         O86   2.401       .  S
Zr79         O87   2.369   1_554  S
Zr79         O88   2.380   1_554  S
Zr80         O99   2.440       .  S
Zr80         O92   2.436       .  S
Zr80         O93   2.482       .  S
Zr80         O86   2.381       .  S
Zr80         O87   2.373   1_554  S
Zr81         O83   2.434       .  S
Zr81        O105   2.440       .  S
Zr81        O107   2.423       .  S
Zr81         O85   2.388   1_556  S
Zr81         O88   2.372       .  S
Zr82        O108   2.436       .  S
Zr82        O109   2.436       .  S
Zr82         O84   2.437       .  S
Zr82         O85   2.402       .  S
Zr82         O86   2.409       .  S
O83         H120   0.990       .  S
O84         H115   0.990       .  S
O84         H129   0.990       .  S
O86         H112   0.967       .  S
O87         Zr97   2.376       .  S
O88         Zr97   2.373       .  S
O88         H113   0.966       .  S
C89         C683   1.502       .  S
C90         C693   1.487       .  S
C91         C753   1.490       .  S
O92         H128   0.990       .  S
O93          C95   1.294       .  A
O94          C95   1.282       .  A
C95         C673   1.495       .  S
O96         Zr97   2.440       .  S
O96         H125   0.990       .  S
Zr97        O100   2.438       .  S
Zr97        O101   2.439       .  S
Zr97        O102   2.413       .  S
O98         C103   1.283       .  A
O99         H116   0.990       .  S
O99         H131   0.990       .  S
O100        H117   0.990       .  S
O101        H121   0.990       .  S
O101        H130   0.989       .  S
O102        C103   1.280       .  A
C103        C700   1.473       .  S
O104        H123   0.990       .  S
O104        H127   0.990       .  S
O105        H119   0.990       .  S
O105        H126   0.990       .  S
O106        C110   1.284       .  A
O107        C110   1.283       .  A
O108        H118   0.990       .  S
O109        H122   0.990       .  S
C110        C763   1.481       .  S
Zr133       O134   2.440       .  S
Zr133       O135   2.490       .  S
Zr133       O136   2.510       .  S
Zr133       O139   2.507       .  S
Zr133       O141   2.407       .  S
Zr133       O142   2.385   1_545  S
Zr133       O143   2.436       .  S
Zr133       O144   2.419       .  S
O134        H190   0.990       .  S
O134        H198   0.990       .  S
O135        C155   1.296       .  A
O136        C157   1.299       .  A
O137       Zr147   2.393       .  S
O137        C156   1.277       .  A
O138       Zr146   2.407       .  S
O138        C157   1.278       .  A
O139        C156   1.298   1_545  A
O140       Zr148   2.425       .  S
O140        C155   1.282   1_565  A
O141       Zr146   2.421       .  S
O141       Zr148   2.386   1_545  S
O142       Zr147   2.379       .  S
O142       Zr148   2.373       .  S
O142        H177   0.964       .  S
O143       Zr146   2.422       .  S
O143       Zr163   2.372       .  S
O143        H180   0.963       .  S
O144       Zr147   2.402   1_545  S
O144       Zr163   2.403       .  S
Zr145       O170   2.438       .  S
Zr145       O164   2.409       .  S
Zr145       O172   2.403       .  S
Zr145       O160   2.407       .  S
Zr145       O151   2.391       .  S
Zr145       O152   2.394       .  S
Zr145       O153   2.365       .  S
Zr145       O154   2.376       .  S
Zr146       O165   2.444       .  S
Zr146       O158   2.435       .  S
Zr146       O159   2.483       .  S
Zr146       O152   2.374   1_545  S
Zr146       O153   2.370   1_545  S
Zr147       O149   2.435       .  S
Zr147       O171   2.438       .  S
Zr147       O173   2.424       .  S
Zr147       O151   2.384       .  S
Zr147       O154   2.367       .  S
Zr148       O174   2.436       .  S
Zr148       O175   2.435       .  S
Zr148       O150   2.436       .  S
Zr148       O151   2.399       .  S
Zr148       O152   2.406       .  S
O149        H186   0.990       .  S
O150        H181   0.990       .  S
O150        H195   0.990   1_565  S
O152        H178   0.968       .  S
O153       Zr163   2.374   1_565  S
O154       Zr163   2.371   1_565  S
O154        H179   0.966       .  S
C155        C630   1.507       .  S
C156        C743   1.489       .  S
C157        C653   1.488       .  S
O158        H194   0.990       .  S
O159        C161   1.294   1_545  A
O160        C161   1.279       .  A
C161        C640   1.504       .  S
O162       Zr163   2.440       .  S
O162        H191   0.990       .  S
Zr163       O166   2.437       .  S
Zr163       O167   2.440       .  S
Zr163       O168   2.414   1_545  S
O164        C169   1.282       .  A
O165        H182   0.990       .  S
O165        H197   0.990       .  S
O166        H183   0.990       .  S
O167        H187   0.990       .  S
O167        H196   0.990   1_545  S
O168        C169   1.281       .  A
C169        C703   1.471       .  S
O170        H189   0.990       .  S
O170        H193   0.990       .  S
O171        H185   0.990       .  S
O171        H192   0.990       .  S
O172        C176   1.280       .  A
O173        C176   1.283       .  A
O174        H184   0.990       .  S
O175        H188   0.990       .  S
C176        C660   1.475       .  S
Zr199       O200   2.439       .  S
Zr199       O201   2.485       .  S
Zr199       O202   2.510       .  S
Zr199       O205   2.495       .  S
Zr199       O207   2.409       .  S
Zr199       O208   2.391       .  S
Zr199       O209   2.437       .  S
Zr199       O210   2.415       .  S
O200        H256   0.990       .  S
O200        H264   0.990       .  S
O201        C221   1.293       .  A
O202        C223   1.299       .  A
O203       Zr213   2.396       .  S
O203        C222   1.277       .  A
O204       Zr212   2.406       .  S
O204        C223   1.277       .  A
O205        C222   1.295       .  A
O206       Zr214   2.432       .  S
O206        C221   1.284       .  A
O207       Zr212   2.417       .  S
O207       Zr214   2.384       .  S
O208       Zr213   2.377       .  S
O208       Zr214   2.378       .  S
O208        H243   0.963       .  S
O209       Zr212   2.428       .  S
O209       Zr229   2.369       .  S
O209        H246   0.963       .  S
O210       Zr213   2.403       .  S
O210       Zr229   2.394       .  S
Zr211       O236   2.438       .  S
Zr211       O230   2.416       .  S
Zr211       O238   2.418       .  S
Zr211       O226   2.423       .  S
Zr211       O217   2.399       .  S
Zr211       O218   2.402       .  S
Zr211       O219   2.373       .  S
Zr211       O220   2.379       .  S
Zr212       O231   2.445       .  S
Zr212       O224   2.434       .  S
Zr212       O225   2.490       .  S
Zr212       O218   2.370       .  S
Zr212       O219   2.374       .  S
Zr213       O215   2.436       .  S
Zr213       O237   2.440       .  S
Zr213       O239   2.429       .  S
Zr213       O217   2.387       .  S
Zr213       O220   2.370       .  S
Zr214       O240   2.434       .  S
Zr214       O241   2.437       .  S
Zr214       O216   2.439       .  S
Zr214       O217   2.406       .  S
Zr214       O218   2.411       .  S
O215        H252   0.990       .  S
O216        H247   0.991       .  S
O216        H261   0.990       .  S
O218        H244   0.966       .  S
O219       Zr229   2.380       .  S
O220       Zr229   2.372       .  S
O220        H245   0.966       .  S
C221        C610   1.509       .  S
C222        C690   1.484       .  S
C223        C650   1.484       .  S
O224        H260   0.990       .  S
O225        C227   1.295       .  A
O226        C227   1.282       .  A
C227        C623   1.511       .  S
O228       Zr229   2.437       .  S
O228        H257   0.990       .  S
Zr229       O232   2.436       .  S
Zr229       O233   2.440       .  S
Zr229       O234   2.404       .  S
O230        C235   1.283       .  A
O231        H248   0.991       .  S
O231        H263   0.991       .  S
O232        H249   0.991       .  S
O233        H253   0.990       .  S
O233        H262   0.990       .  S
O234        C235   1.279       .  A
C235        C730   1.470       .  S
O236        H255   0.990       .  S
O236        H259   0.990       .  S
O237        H251   0.990       .  S
O237        H258   0.990       .  S
O238        C242   1.283       .  A
O239        C242   1.284       .  A
O240        H250   0.990       .  S
O241        H254   0.990       .  S
C242        C663   1.478       .  S
Zr265       O266   2.440       .  S
Zr265       O267   2.479       .  S
Zr265       O268   2.514       .  S
Zr265       O271   2.499       .  S
Zr265       O273   2.404       .  S
Zr265       O274   2.384       .  S
Zr265       O275   2.430       .  S
Zr265       O276   2.420       .  S
O266        H322   0.990       .  S
O266        H330   0.990       .  S
O267        C287   1.292       .  A
O268        C289   1.300       .  A
O269       Zr279   2.381       .  S
O269        C288   1.275       .  A
O270       Zr278   2.392       .  S
O270        C289   1.277       .  A
O271        C288   1.296       .  A
O272       Zr280   2.445       .  S
O272        C287   1.287       .  A
O273       Zr278   2.422       .  S
O273       Zr280   2.381       .  S
O274       Zr279   2.373       .  S
O274       Zr280   2.369       .  S
O274        H309   0.963       .  S
O275       Zr278   2.419       .  S
O275       Zr295   2.370       .  S
O275        H312   0.963       .  S
O276       Zr279   2.400       .  S
O276       Zr295   2.403       .  S
Zr277       O302   2.439       .  S
Zr277       O296   2.413       .  S
Zr277       O304   2.416       .  S
Zr277       O292   2.422       .  S
Zr277       O283   2.396       .  S
Zr277       O284   2.397       .  S
Zr277       O285   2.368       .  S
Zr277       O286   2.378       .  S
Zr278       O297   2.440       .  S
Zr278       O290   2.433       .  S
Zr278       O291   2.481       .  S
Zr278       O284   2.371       .  S
Zr278       O285   2.369       .  S
Zr279       O281   2.437       .  S
Zr279       O303   2.437       .  S
Zr279       O305   2.407       .  S
Zr279       O283   2.386       .  S
Zr279       O286   2.363       .  S
Zr280       O306   2.435       .  S
Zr280       O307   2.437       .  S
Zr280       O282   2.438       .  S
Zr280       O283   2.409       .  S
Zr280       O284   2.407       .  S
O281        H318   0.990       .  S
O282        H313   0.990       .  S
O282        H327   0.990       .  S
O284        H310   0.967       .  S
O285       Zr295   2.380       .  S
O286       Zr295   2.370       .  S
O286        H311   0.966       .  S
C287        C620   1.507       .  S
C288        C583   1.483       .  S
C289        C590   1.489       .  S
O290        H326   0.990       .  S
O291        C293   1.295       .  A
O292        C293   1.281       .  A
C293        C613   1.501       .  S
O294       Zr295   2.438       .  S
O294        H323   0.990       .  S
Zr295       O298   2.436       .  S
Zr295       O299   2.440       .  S
Zr295       O300   2.416       .  S
O296        C301   1.282       .  A
O297        H314   0.990       .  S
O297        H329   0.990       .  S
O298        H315   0.990       .  S
O299        H319   0.990       .  S
O299        H328   0.990       .  S
O300        C301   1.281       .  A
C301        C570   1.473       .  S
O302        H321   0.990       .  S
O302        H325   0.990       .  S
O303        H317   0.990       .  S
O303        H324   0.990       .  S
O304        C308   1.282       .  A
O305        C308   1.280       .  A
O306        H316   0.991       .  S
O307        H320   0.990       .  S
C308        C600   1.469       .  S
Zr331       O332   2.441       .  S
Zr331       O333   2.471       .  S
Zr331       O334   2.514       .  S
Zr331       O337   2.496       .  S
Zr331       O339   2.407       .  S
Zr331       O340   2.390   1_565  S
Zr331       O341   2.430       .  S
Zr331       O342   2.415       .  S
O332        H388   0.990       .  S
O332        H396   0.990       .  S
O333        C353   1.291       .  A
O334        C355   1.299       .  A
O335       Zr345   2.386       .  S
O335        C354   1.277   1_545  A
O336       Zr344   2.397       .  S
O336        C355   1.275       .  A
O337        C354   1.296       .  A
O338       Zr346   2.433   1_565  S
O338        C353   1.284       .  A
O339       Zr344   2.416       .  S
O339       Zr346   2.384   1_565  S
O340       Zr345   2.374       .  S
O340       Zr346   2.372       .  S
O340        H375   0.963       .  S
O341       Zr344   2.422       .  S
O341       Zr361   2.366       .  S
O341        H378   0.963       .  S
O342       Zr345   2.402   1_565  S
O342       Zr361   2.392       .  S
Zr343       O368   2.438       .  S
Zr343       O362   2.419       .  S
Zr343       O370   2.422       .  S
Zr343       O358   2.416       .  S
Zr343       O349   2.396       .  S
Zr343       O350   2.403       .  S
Zr343       O351   2.371   1_545  S
Zr343       O352   2.375       .  S
Zr344       O363   2.443       .  S
Zr344       O356   2.434       .  S
Zr344       O357   2.479       .  S
Zr344       O350   2.372   1_565  S
Zr344       O351   2.371       .  S
Zr345       O347   2.435       .  S
Zr345       O369   2.438       .  S
Zr345       O371   2.417       .  S
Zr345       O349   2.386       .  S
Zr345       O352   2.364       .  S
Zr346       O372   2.437       .  S
Zr346       O373   2.437       .  S
Zr346       O348   2.439   1_545  S
Zr346       O349   2.409       .  S
Zr346       O350   2.410       .  S
O347        H384   0.990       .  S
O348        H379   0.990       .  S
O348        H393   0.990       .  S
O350        H376   0.968       .  S
O351       Zr361   2.379       .  S
O352       Zr361   2.371   1_545  S
O352        H377   0.966       .  S
C353        C643   1.494       .  S
C354        C553   1.482       .  S
C355        C593   1.481       .  S
O356        H392   0.990       .  S
O357        C359   1.293       .  A
O358        C359   1.281   1_545  A
C359        C633   1.505       .  S
O360       Zr361   2.440       .  S
O360        H389   0.990       .  S
Zr361       O364   2.436       .  S
Zr361       O365   2.440       .  S
Zr361       O366   2.407       .  S
O362        C367   1.284       .  A
O363        H380   0.991       .  S
O363        H395   0.990       .  S
O364        H381   0.990       .  S
O365        H385   0.990       .  S
O365        H394   0.990   1_565  S
O366        C367   1.280   1_565  A
C367        C563   1.474       .  S
O368        H387   0.990       .  S
O368        H391   0.990       .  S
O369        H383   0.990       .  S
O369        H390   0.990       .  S
O370        C374   1.284       .  A
O371        C374   1.281       .  A
O372        H382   0.990       .  S
O373        H386   0.990       .  S
C374        C603   1.478       .  S
Zr397       O398   2.441       .  S
Zr397       O399   2.480       .  S
Zr397       O400   2.500       .  S
Zr397       O403   2.496       .  S
Zr397       O405   2.400       .  S
Zr397       O406   2.389   1_455  S
Zr397       O407   2.435       .  S
Zr397       O408   2.410       .  S
O398        H454   0.990       .  S
O398        H462   0.990       .  S
O399        C419   1.293       .  A
O400        C421   1.297       .  A
O401       Zr411   2.406       .  S
O401        C420   1.278   1_655  A
O402       Zr410   2.398       .  S
O402        C421   1.275       .  A
O403        C420   1.295       .  A
O404       Zr412   2.449   1_455  S
O404        C419   1.288       .  A
O405       Zr410   2.420       .  S
O405       Zr412   2.377   1_455  S
O406       Zr411   2.376       .  S
O406       Zr412   2.373       .  S
O406        H441   0.963       .  S
O407       Zr410   2.418       .  S
O407       Zr427   2.375       .  S
O407        H444   0.965       .  S
O408       Zr411   2.398   1_455  S
O408       Zr427   2.391       .  S
Zr409       O434   2.439       .  S
Zr409       O428   2.410       .  S
Zr409       O436   2.418       .  S
Zr409       O424   2.430       .  S
Zr409       O415   2.400       .  S
Zr409       O416   2.393       .  S
Zr409       O417   2.369   1_655  S
Zr409       O418   2.380       .  S
Zr410       O429   2.440       .  S
Zr410       O422   2.435       .  S
Zr410       O423   2.484       .  S
Zr410       O416   2.373   1_455  S
Zr410       O417   2.369       .  S
Zr411       O413   2.435       .  S
Zr411       O435   2.438       .  S
Zr411       O437   2.431       .  S
Zr411       O415   2.387       .  S
Zr411       O418   2.372       .  S
Zr412       O438   2.435       .  S
Zr412       O439   2.435       .  S
Zr412       O414   2.437   1_655  S
Zr412       O415   2.404       .  S
Zr412       O416   2.405       .  S
O413        H450   0.990       .  S
O414        H445   0.990   1_455  S
O414        H459   0.990       .  S
O416        H442   0.968       .  S
O417       Zr427   2.378       .  S
O418       Zr427   2.372   1_655  S
O418        H443   0.966       .  S
C419        C713   1.509       .  S
C420        C580   1.486       .  S
C421        C533   1.481       .  S
O422        H458   0.990       .  S
O423        C425   1.295   1_455  A
O424        C425   1.284       .  A
C425        C723   1.512       .  S
O426       Zr427   2.435       .  S
O426        H455   0.990       .  S
Zr427       O430   2.435       .  S
Zr427       O431   2.438       .  S
Zr427       O432   2.410       .  S
O428        C433   1.282       .  A
O429        H446   0.990       .  S
O429        H461   0.990       .  S
O430        H447   0.990       .  S
O431        H451   0.990       .  S
O431        H460   0.989   1_455  S
O432        C433   1.280   1_455  A
C433        C560   1.470       .  S
O434        H453   0.990       .  S
O434        H457   0.990       .  S
O435        H449   0.990       .  S
O435        H456   0.990       .  S
O436        C440   1.283       .  A
O437        C440   1.285       .  A
O438        H448   0.990       .  S
O439        H452   0.990       .  S
C440        C540   1.483       .  S
Zr463       O464   2.441       .  S
Zr463       O465   2.480       .  S
Zr463       O466   2.508       .  S
Zr463       O469   2.496       .  S
Zr463       O471   2.405       .  S
Zr463       O472   2.388       .  S
Zr463       O473   2.430       .  S
Zr463       O474   2.414       .  S
O464        H520   0.990       .  S
O464        H528   0.990       .  S
O465        C485   1.292       .  A
O466        C487   1.299       .  A
O467       Zr477   2.400       .  S
O467        C486   1.277       .  A
O468       Zr476   2.394       .  S
O468        C487   1.277       .  A
O469        C486   1.296       .  A
O470       Zr478   2.442       .  S
O470        C485   1.285       .  A
O471       Zr476   2.418       .  S
O471       Zr478   2.387       .  S
O472       Zr477   2.381       .  S
O472       Zr478   2.369       .  S
O472        H507   0.964       .  S
O473       Zr476   2.421       .  S
O473       Zr493   2.372       .  S
O473        H510   0.963       .  S
O474       Zr477   2.401       .  S
O474       Zr493   2.398       .  S
Zr475       O500   2.439       .  S
Zr475       O494   2.414       .  S
Zr475       O502   2.423       .  S
Zr475       O490   2.417       .  S
Zr475       O481   2.396       .  S
Zr475       O482   2.403       .  S
Zr475       O483   2.372       .  S
Zr475       O484   2.378       .  S
Zr476       O495   2.441       .  S
Zr476       O488   2.434       .  S
Zr476       O489   2.487       .  S
Zr476       O482   2.373       .  S
Zr476       O483   2.373       .  S
Zr477       O479   2.435       .  S
Zr477       O501   2.438       .  S
Zr477       O503   2.429       .  S
Zr477       O481   2.383       .  S
Zr477       O484   2.372       .  S
Zr478       O504   2.436       .  S
Zr478       O505   2.434       .  S
Zr478       O480   2.436       .  S
Zr478       O481   2.399       .  S
Zr478       O482   2.413       .  S
O479        H516   0.990       .  S
O480        H511   0.991       .  S
O480        H525   0.990       .  S
O482        H508   0.968       .  S
O483       Zr493   2.379       .  S
O484       Zr493   2.373       .  S
O484        H509   0.966       .  S
C485        C670   1.515       .  S
C486        C550   1.485       .  S
C487        C530   1.479       .  S
O488        H524   0.990       .  S
O489        C491   1.294       .  A
O490        C491   1.281       .  A
C491        C680   1.506       .  S
O492       Zr493   2.442       .  S
O492        H521   0.990       .  S
Zr493       O496   2.439       .  S
Zr493       O497   2.440       .  S
Zr493       O498   2.415       .  S
O494        C499   1.282       .  A
O495        H512   0.990       .  S
O495        H527   0.990       .  S
O496        H513   0.990       .  S
O497        H517   0.990       .  S
O497        H526   0.990       .  S
O498        C499   1.281       .  A
C499        C573   1.471       .  S
O500        H519   0.990       .  S
O500        H523   0.990       .  S
O501        H515   0.990       .  S
O501        H522   0.990       .  S
O502        C506   1.284       .  A
O503        C506   1.284       .  A
O504        H514   0.990       .  S
O505        H518   0.990       .  S
C506        C543   1.483       .  S
C529        C530   1.407       .  A
C529        C534   1.403       .  A
C529        F536   1.358       .  S
C530        C531   1.407       .  A
C531        C532   1.403       .  A
C531        F538   1.358       .  S
C532        C533   1.409       .  A
C532        F537   1.358       .  S
C533        C534   1.406       .  A
C534        F535   1.358       .  S
C539        C540   1.410       .  A
C539        C544   1.397       .  A
C539        F546   1.359       .  S
C540        C541   1.408       .  A
C541        C542   1.397       .  A
C541        F548   1.358       .  S
C542        C543   1.409       .  A
C542        F547   1.358       .  S
C543        C544   1.409       .  A
C544        F545   1.358       .  S
C549        C550   1.411   1_565  A
C549        C554   1.406       .  A
C549        F556   1.358       .  S
C550        C551   1.405       .  A
C551        C552   1.405       .  A
C551        F558   1.358       .  S
C552        C553   1.411   1_545  A
C552        F557   1.359       .  S
C553        C554   1.403       .  A
C554        F555   1.358       .  S
C559        C560   1.406       .  A
C559        C564   1.392       .  A
C559        F566   1.358       .  S
C560        C561   1.406       .  A
C561        C562   1.392       .  A
C561        F568   1.359       .  S
C562        C563   1.409       .  A
C562        F567   1.358       .  S
C563        C564   1.408       .  A
C564        F565   1.358       .  S
C569        C570   1.408       .  A
C569        C574   1.393       .  A
C569        F576   1.359       .  S
C570        C571   1.408       .  A
C571        C572   1.393       .  A
C571        F578   1.358       .  S
C572        C573   1.406       .  A
C572        F577   1.359       .  S
C573        C574   1.406       .  A
C574        F575   1.358       .  S
C579        C580   1.411   1_655  A
C579        C584   1.406       .  A
C579        F586   1.357       .  S
C580        C581   1.405       .  A
C581        C582   1.406       .  A
C581        F588   1.358       .  S
C582        C583   1.413   1_455  A
C582        F587   1.359       .  S
C583        C584   1.403       .  A
C584        F585   1.357       .  S
C589        C590   1.412       .  A
C589        C594   1.404       .  A
C589        F596   1.358       .  S
C590        C591   1.408       .  A
C591        C592   1.407       .  A
C591        F598   1.358       .  S
C592        C593   1.409       .  A
C592        F597   1.358       .  S
C593        C594   1.405       .  A
C594        F595   1.358       .  S
C599        C600   1.405       .  A
C599        C604   1.395       .  A
C599        F606   1.359       .  S
C600        C601   1.406       .  A
C601        C602   1.392       .  A
C601        F608   1.358       .  S
C602        C603   1.408       .  A
C602        F607   1.358       .  S
C603        C604   1.410       .  A
C604        F605   1.358       .  S
C609        C610   1.417       .  A
C609        C614   1.403       .  A
C609        F616   1.358       .  S
C610        C611   1.412       .  A
C611        C612   1.413       .  A
C611        F618   1.358       .  S
C612        C613   1.416       .  A
C612        F617   1.358       .  S
C613        C614   1.404       .  A
C614        F615   1.358       .  S
C619        C620   1.415   1_455  A
C619        C624   1.407       .  A
C619        F626   1.358   1_455  S
C620        C621   1.408   1_655  A
C621        C622   1.412       .  A
C621        F628   1.358   1_455  S
C622        C623   1.418       .  A
C622        F627   1.358       .  S
C623        C624   1.409       .  A
C624        F625   1.357       .  S
C629        C630   1.418   1_565  A
C629        C634   1.406   1_455  A
C629        F636   1.358       .  S
C630        C631   1.407   1_455  A
C631        C632   1.409       .  A
C631        F638   1.357   1_655  S
C632        C633   1.416   1_545  A
C632        F637   1.357       .  S
C633        C634   1.408       .  A
C634        F635   1.358       .  S
C639        C640   1.408   1_545  A
C639        C644   1.403       .  A
C639        F646   1.357       .  S
C640        C641   1.420       .  A
C641        C642   1.407       .  A
C641        F648   1.358       .  S
C642        C643   1.404       .  A
C642        F647   1.358       .  S
C643        C644   1.412   1_565  A
C644        F645   1.358       .  S
C649        C650   1.408       .  A
C649        C654   1.407       .  A
C649        F656   1.358       .  S
C650        C651   1.408       .  A
C651        C652   1.406       .  A
C651        F658   1.358       .  S
C652        C653   1.410       .  A
C652        F657   1.358       .  S
C653        C654   1.409       .  A
C654        F655   1.358       .  S
C659        C660   1.409       .  A
C659        C664   1.395       .  A
C659        F666   1.359       .  S
C660        C661   1.406       .  A
C661        C662   1.395       .  A
C661        F668   1.358       .  S
C662        C663   1.408       .  A
C662        F667   1.358       .  S
C663        C664   1.407       .  A
C664        F665   1.358       .  S
C669        C670   1.419   1_565  A
C669        C674   1.408       .  A
C669        F676   1.358   1_565  S
C670        C671   1.416   1_545  A
C671        C672   1.410       .  A
C671        F678   1.357       .  S
C672        C673   1.408       .  A
C672        F677   1.358       .  S
C673        C674   1.404       .  A
C674        F675   1.358       .  S
C679        C680   1.417       .  A
C679        C684   1.408       .  A
C679        F686   1.358       .  S
C680        C681   1.409       .  A
C681        C682   1.407       .  A
C681        F688   1.357       .  S
C682        C683   1.415       .  A
C682        F687   1.358       .  S
C683        C684   1.407       .  A
C684        F685   1.358       .  S
C689        C690   1.405       .  A
C689        C694   1.406       .  A
C689        F696   1.358       .  S
C690        C691   1.411       .  A
C691        C692   1.408       .  A
C691        F698   1.358       .  S
C692        C693   1.405       .  A
C692        F697   1.357       .  S
C693        C694   1.411       .  A
C694        F695   1.358       .  S
C699        C700   1.407       .  A
C699        C704   1.393       .  A
C699        F706   1.358       .  S
C700        C701   1.406       .  A
C701        C702   1.393       .  A
C701        F708   1.358       .  S
C702        C703   1.407       .  A
C702        F707   1.358       .  S
C703        C704   1.406       .  A
C704        F705   1.359       .  S
C709        C710   1.413       .  A
C709        C714   1.410       .  A
C709        F716   1.358       .  S
C710        C711   1.407   1_455  A
C711        C712   1.408       .  A
C711        F718   1.358       .  S
C712        C713   1.417   1_655  A
C712        F717   1.357       .  S
C713        C714   1.411       .  A
C714        F715   1.357       .  S
C719        C720   1.408       .  A
C719        C724   1.413   1_565  A
C719        F726   1.357       .  S
C720        C721   1.415   1_655  A
C721        C722   1.407   1_565  A
C721        F728   1.358       .  S
C722        C723   1.409   1_455  A
C722        F727   1.357       .  S
C723        C724   1.419       .  A
C724        F725   1.358       .  S
C729        C730   1.408       .  A
C729        C734   1.392       .  A
C729        F736   1.358       .  S
C730        C731   1.405       .  A
C731        C732   1.393       .  A
C731        F738   1.359       .  S
C732        C733   1.409       .  A
C732        F737   1.358       .  S
C733        C734   1.405       .  A
C734        F735   1.358       .  S
C739        C740   1.411   1_455  A
C739        C744   1.408   1_565  A
C739        F746   1.358       .  S
C740        C741   1.407       .  A
C741        C742   1.409   1_655  A
C741        F748   1.358       .  S
C742        C743   1.412       .  A
C742        F747   1.358       .  S
C743        C744   1.406   1_565  A
C744        F745   1.357       .  S
C749        C750   1.411       .  A
C749        C754   1.408       .  A
C749        F756   1.358       .  S
C750        C751   1.407       .  A
C751        C752   1.406       .  A
C751        F758   1.358   1_554  S
C752        C753   1.408       .  A
C752        F757   1.357   1_554  S
C753        C754   1.410       .  A
C754        F755   1.358       .  S
C759        C760   1.408       .  A
C759        C764   1.395       .  A
C759        F766   1.358       .  S
C760        C761   1.409       .  A
C761        C762   1.397       .  A
C761        F768   1.358       .  S
C762        C763   1.408       .  A
C762        F767   1.358       .  S
C763        C764   1.408       .  A
C764        F765   1.358       .  S
