geometry optimzed in LAMMPS
_audit_creation_date              2020-12-01 
_audit_creation_method            'lammps2cif' 
_symmetry_space_group_name_H-M    'P1' 
_symmetry_Int_Tables_number       1 
_symmetry_cell_setting            triclinic 
loop_ 
_symmetry_equiv_pos_as_xyz 
  x,y,z 
_cell_length_a                    38.98845128 
_cell_length_b                    39.1154543857867 
_cell_length_c                    51.77991750219364 
_cell_angle_alpha                 90.17494702092216 
_cell_angle_beta                  90.04847916187099 
_cell_angle_gamma                 89.97783923371375 
loop_ 
_atom_site_label 
_atom_site_type_symbol 
_atom_site_fract_x 
_atom_site_fract_y 
_atom_site_fract_z 
_atom_site_charge 
O1          O  0.07461772  0.63206829  0.65968773    -0.80500
O2          O  0.06077887  0.71988187  0.56145927    -0.65200
O3          O  0.06682354  0.69183448  0.63137685    -1.11800
C4          C  0.95465654  0.64625597  0.61747098     1.06400
O5          O  0.00573614  0.73451950  0.56310130    -0.78400
O6          O  0.96996342  0.72754609  0.60708447    -0.66000
Ni7        Ni  0.10391366  0.66453081  0.64274921     1.34900
C8          C  0.98066096  0.73368949  0.62977663     0.85100
O9          O  0.10818253  0.72932962  0.59854576    -0.78900
O10         O  0.13587192  0.69532103  0.62683526    -0.89200
C11         C  0.03578546  0.73779630  0.55371709     0.84700
O12         O  0.10702504  0.63414723  0.61406313    -0.67400
O13         O  0.95492063  0.66109522  0.59550772    -0.86700
C14         C  0.10625615  0.64131282  0.59025417     0.85500
C15         C  0.13522221  0.72014841  0.61083097     1.07100
H16         H  0.02756687  0.65749229  0.58788140     0.38900
O17         O  0.02318256  0.67920081  0.59620087    -1.09400
O18         O  0.00251367  0.71490033  0.64157794    -0.66000
Ni19       Ni  0.02305748  0.67081656  0.63273289     1.26300
O20         O  0.09054020  0.66724845  0.58150753    -0.66300
O21         O  0.97907449  0.64905101  0.63364711    -0.78500
C22         C  0.05100094  0.63982238  0.67552934     0.84900
O23         O  0.02772158  0.66095474  0.66897793    -0.65700
Ni24       Ni  0.98261830  0.69678745  0.58027030     1.27400
Ni25       Ni  0.06526081  0.70502963  0.59622792     1.26100
H26         H  0.06664981  0.71228416  0.64189492     0.39400
O27         O  0.13040495  0.58639545  0.86062515    -0.80500
O28         O  0.22026989  0.57836482  0.95827555    -0.65200
O29         O  0.19016364  0.57964425  0.88915869    -1.11800
C30         C  0.14543228  0.46878806  0.90822618     1.06400
O31         O  0.23429690  0.52411446  0.96035716    -0.78400
O32         O  0.22738972  0.48636585  0.91770528    -0.66000
Ni33       Ni  0.16186776  0.61641134  0.87820111     1.34900
C34         C  0.23286574  0.49502707  0.89449125     0.85100
O35         O  0.22927767  0.62183395  0.91993138    -0.78900
O36         O  0.19162642  0.64960246  0.89458653    -0.89200
C37         C  0.23877897  0.55499576  0.96741968     0.84700
O38         O  0.13104836  0.61734060  0.90689816    -0.67400
O39         O  0.16117360  0.47070252  0.92982276    -0.86700
C40         C  0.13872857  0.61710111  0.93065241     0.85500
C41         C  0.21782791  0.64906019  0.90950666     1.07100
H42         H  0.15694212  0.54355737  0.93453602     0.38900
O43         O  0.17851587  0.53850474  0.92617778    -1.09400
O44         O  0.21326311  0.51500939  0.88162593    -0.66000
Ni45       Ni  0.16916286  0.53589260  0.88985719     1.26300
O46         O  0.16718671  0.60524944  0.93829585    -0.66300
O47         O  0.14745883  0.49185844  0.89097368    -0.78500
C48         C  0.13839967  0.56157070  0.84593202     0.84900
O49         O  0.15875153  0.53819084  0.85360384    -0.65700
Ni50       Ni  0.19655372  0.49975568  0.94398344     1.27400
Ni51       Ni  0.20471641  0.57988912  0.92388497     1.26100
H52         H  0.21009320  0.57904670  0.87810657     0.39400
O53         O  0.44067269  0.89689106  0.65881489    -0.80500
O54         O  0.44924361  0.80945506  0.56022266    -0.65200
O55         O  0.44544622  0.83721070  0.63033024    -1.11800
C56         C  0.56046232  0.87732559  0.61801661     1.06400
O57         O  0.50436963  0.79537624  0.55958492    -0.78400
O58         O  0.53826416  0.79616530  0.60452511    -0.66000
Ni59       Ni  0.40939541  0.86537853  0.64267317     1.34900
C60         C  0.52811047  0.79071094  0.62743107     0.85100
O61         O  0.40151965  0.80303956  0.59707351    -0.78900
O62         O  0.37583662  0.83544824  0.62762101    -0.89200
C63         C  0.47368132  0.79142393  0.55155470     0.84700
O64         O  0.40426056  0.89569293  0.61393562    -0.67400
O65         O  0.56003110  0.86181625  0.59625531    -0.86700
C66         C  0.40710675  0.88949614  0.58995874     0.85500
C67         C  0.37495920  0.81276608  0.60980084     1.07100
H68         H  0.48635693  0.87042322  0.58738236     0.38900
O69         O  0.48972249  0.84838657  0.59533445    -1.09400
O70         O  0.50878944  0.81123922  0.64010848    -0.66000
Ni71       Ni  0.49019217  0.85626873  0.63198567     1.26300
O72         O  0.42375579  0.86409159  0.58123833    -0.66300
O73         O  0.53509939  0.87642427  0.63344551    -0.78500
C74         C  0.46357620  0.88767412  0.67483383     0.84900
O75         O  0.48586641  0.86552472  0.66830286    -0.65700
Ni76       Ni  0.52958761  0.82970165  0.57902264     1.27400
Ni77       Ni  0.44614904  0.82450513  0.59516876     1.26100
H78         H  0.44493296  0.81636371  0.64054878     0.39400
O79         O  0.39572493  0.95366339  0.85886823    -0.80500
O80         O  0.31458790  0.95737088  0.96047498    -0.65200
O81         O  0.33797331  0.95674415  0.88938781    -1.11800
C82         C  0.38311717  0.06798524  0.90708998     1.06400
O83         O  0.29808655  0.01175635  0.96002595    -0.78400
O84         O  0.30469520  0.05261148  0.91924430    -0.66000
Ni85       Ni  0.36509556  0.92160840  0.87481001     1.34900
C86         C  0.29559318  0.04341130  0.89674851     0.85100
O87         O  0.30493591  0.91183917  0.92202215    -0.78900
O88         O  0.33575961  0.88754104  0.88976397    -0.89200
C89         C  0.29516023  0.98126170  0.96831512     0.84700
O90         O  0.39760473  0.91558713  0.90198826    -0.67400
O91         O  0.37186013  0.06469253  0.93015496    -0.86700
C92         C  0.39337025  0.91560121  0.92623258     0.85500
C93         C  0.31314658  0.88638495  0.90763499     1.07100
H94         H  0.37505080  0.99335372  0.93251572     0.38900
O95         O  0.35243301  0.99782075  0.92565498    -1.09400
O96         O  0.31212594  0.02120662  0.88344489    -0.66000
Ni97       Ni  0.35749850  0.00125178  0.88903309     1.26300
O98         O  0.36776239  0.93035583  0.93667984    -0.66300
O99         O  0.37763814  0.04600651  0.88934520    -0.78500
C100        C  0.38538377  0.97728665  0.84402746     0.84900
O101        O  0.36430691  0.99963639  0.85229575    -0.65700
Ni102      Ni  0.33596445  0.03629269  0.94440648     1.27400
Ni103      Ni  0.32774364  0.95522328  0.92502237     1.26100
H104        H  0.31653438  0.95713362  0.87997465     0.39400
O105        O  0.62646398  0.44639768  0.66646547    -0.80500
O106        O  0.71151033  0.45626497  0.56583820    -0.65200
O107        O  0.68515765  0.45401567  0.63629874    -1.11800
C108        C  0.63478375  0.56244288  0.61895833     1.06400
O109        O  0.72387585  0.51167893  0.56517906    -0.78400
O110        O  0.71601004  0.54997356  0.60755763    -0.66000
Ni111      Ni  0.65910410  0.41702004  0.64927632     1.34900
C112        C  0.72386562  0.54090768  0.63032997     0.85100
O113        O  0.72364924  0.41271368  0.60451797    -0.78900
O114        O  0.69050622  0.38505612  0.63358617    -0.89200
C115        C  0.72877089  0.48115857  0.55731760     0.84700
O116        O  0.62757609  0.41215160  0.62125639    -0.67400
O117        O  0.64816051  0.56111748  0.59644074    -0.86700
C118        C  0.63392571  0.41168053  0.59729032     0.85500
C119        C  0.71535888  0.38619900  0.61746212     1.07100
H120        H  0.64798615  0.48848855  0.59204740     0.38900
O121        O  0.66982167  0.49438535  0.59968705    -1.09400
O122        O  0.70650244  0.51914672  0.64328013    -0.66000
Ni123      Ni  0.66275281  0.49685993  0.63630113     1.26300
O124        O  0.66037673  0.42616210  0.58814116    -0.66300
O125        O  0.63977361  0.53984570  0.63609761    -0.78500
C126        C  0.63435887  0.47161664  0.68081919     0.84900
O127        O  0.65452361  0.49475651  0.67273040    -0.65700
Ni128      Ni  0.68512409  0.53418694  0.58178158     1.27400
Ni129      Ni  0.69753454  0.45380062  0.60098084     1.26100
H130        H  0.70587098  0.45548818  0.64655006     0.39400
O131        O  0.58087658  0.39896374  0.86717013    -0.80500
O132        O  0.56696850  0.31423589  0.96698516    -0.65200
O133        O  0.57291747  0.34030656  0.89673794    -1.11800
C134        C  0.46108742  0.38792640  0.90885608     1.06400
O135        O  0.51066183  0.30534840  0.96846668    -0.78400
O136        O  0.47681119  0.30730511  0.92347448    -0.66000
Ni137      Ni  0.61030400  0.36664382  0.88457162     1.34900
C138        C  0.48685517  0.29959534  0.90083499     0.85100
O139        O  0.61455777  0.30389343  0.93022941    -0.78900
O140        O  0.64210690  0.33575171  0.90044789    -0.89200
C141        C  0.54088692  0.30001309  0.97682153     0.84700
O142        O  0.61603687  0.39733128  0.91336392    -0.67400
O143        O  0.46113210  0.37491297  0.93137401    -0.86700
C144        C  0.61362488  0.39069554  0.93732828     0.85500
C145        C  0.64184261  0.31300542  0.91811621     1.07100
H146        H  0.53479958  0.37726841  0.93912914     0.38900
O147        O  0.52960682  0.35520719  0.93164299    -1.09400
O148        O  0.50814264  0.31764560  0.88788161    -0.66000
Ni149      Ni  0.52937077  0.36176458  0.89492872     1.26300
O150        O  0.59609255  0.36595171  0.94579681    -0.66300
O151        O  0.48560236  0.38393095  0.89299067    -0.78500
C152        C  0.55677222  0.39078151  0.85168443     0.84900
O153        O  0.53394907  0.36946195  0.85857988    -0.65700
Ni154      Ni  0.48859700  0.34079743  0.94857833     1.27400
Ni155      Ni  0.57121792  0.32813677  0.93194151     1.26100
H156        H  0.57243183  0.31952944  0.88659252     0.39400
O157        O  0.89768576  0.07901733  0.66588982    -0.80500
O158        O  0.79915285  0.07688057  0.57381434    -0.65200
O159        O  0.83461921  0.07812732  0.64173533    -1.11800
C160        C  0.86955887  0.96306239  0.62408768     1.06400
O161        O  0.78325430  0.02232938  0.57266949    -0.78400
O162        O  0.78905365  0.98562114  0.61583996    -0.66000
Ni163      Ni  0.86649610  0.11247631  0.65182653     1.34900
C164        C  0.78468096  0.99540962  0.63894972     0.85100
O165        O  0.79827387  0.12342777  0.61203858    -0.78900
O166        O  0.83685599  0.14798136  0.63894599    -0.89200
C167        C  0.78114801  0.05290267  0.56450098     0.84700
O168        O  0.89360951  0.11632670  0.62089600    -0.67400
O169        O  0.85348565  0.96549923  0.60270273    -0.86700
C170        C  0.88359960  0.11527377  0.59752088     0.85500
C171        C  0.81105132  0.14946268  0.62371375     1.07100
H172        H  0.86187747  0.03786500  0.59653253     0.38900
O173        O  0.84035717  0.03467553  0.60543374    -1.09400
O174        O  0.80577450  0.01499710  0.65119056    -0.66000
Ni175      Ni  0.85144983  0.03248972  0.64148838     1.26300
O176        O  0.85616613  0.10017520  0.59101777    -0.66300
O177        O  0.86951664  0.98681673  0.64092729    -0.78500
C178        C  0.88887792  0.05679472  0.68259763     0.84900
O179        O  0.86492966  0.03564868  0.67721090    -0.65700
Ni180      Ni  0.81962094  0.99630786  0.58880361     1.27400
Ni181      Ni  0.81792398  0.07858632  0.60765085     1.26100
H182        H  0.81524847  0.07954016  0.65335858     0.39400
O183        O  0.94519845  0.13778034  0.86496525    -0.80500
O184        O  0.95205447  0.21913114  0.96752979    -0.65200
O185        O  0.95184236  0.19546385  0.89616374    -1.11800
C186        C  0.06387291  0.15079337  0.91330585     1.06400
O187        O  0.00668555  0.23504099  0.96832888    -0.78400
O188        O  0.04450492  0.23229452  0.92545179    -0.66000
Ni189      Ni  0.91527692  0.16956013  0.88193750     1.34900
C190        C  0.03577332  0.23852924  0.90232744     0.85100
O191        O  0.90785897  0.23049917  0.92897436    -0.78900
O192        O  0.88208446  0.19919119  0.89791285    -0.89200
C193        C  0.97605427  0.23732858  0.97665435     0.84700
O194        O  0.91043121  0.13701567  0.90875436    -0.67400
O195        O  0.06219517  0.16587983  0.93516585    -0.86700
C196        C  0.91061264  0.14141617  0.93291471     0.85500
C197        C  0.88167555  0.22231737  0.91540631     1.07100
H198        H  0.98866652  0.15927225  0.94033681     0.38900
O199        O  0.99308524  0.18134234  0.93271583    -1.09400
O200        O  0.01639776  0.21887536  0.88893744    -0.66000
Ni201      Ni  0.99577027  0.17437154  0.89601779     1.26300
O202        O  0.92508931  0.16713133  0.94332184    -0.66300
O203        O  0.03999947  0.15270564  0.89654241    -0.78500
C204        C  0.97090570  0.14510970  0.85111190     0.84900
O205        O  0.99383886  0.16564795  0.85933689    -0.65700
Ni206      Ni  0.03207486  0.19938086  0.95062838     1.27400
Ni207      Ni  0.95062462  0.20649575  0.93187459     1.26100
H208        H  0.95291159  0.21657062  0.88656354     0.39400
O209        O  0.79021805  0.51768891  0.06917642    -0.80500
O210        O  0.86574573  0.50087469  0.17471365    -0.65200
O211        O  0.84655238  0.50353352  0.10216502    -1.11800
C212        C  0.80788714  0.39101533  0.11793344     1.06400
O213        O  0.89526365  0.45431770  0.16560477    -0.78400
O214        O  0.89150055  0.41573878  0.12125373    -0.66000
Ni215      Ni  0.82734199  0.54249103  0.08555049     1.34900
C216        C  0.88548979  0.41895241  0.09726398     0.85100
O217        O  0.87641335  0.54883561  0.13854486    -0.78900
O218        O  0.86218708  0.57136928  0.10018060    -0.89200
C219        C  0.88685863  0.47771592  0.18152357     0.84700
O220        O  0.79668187  0.55510993  0.11223885    -0.67400
O221        O  0.83022919  0.39127461  0.13605523    -0.86700
C222        C  0.79158030  0.54587420  0.13536293     0.85500
C223        C  0.87793463  0.57255970  0.12178867     1.07100
H224        H  0.81410331  0.46094707  0.14785973     0.38900
O225        O  0.83487850  0.46051122  0.13770129    -1.09400
O226        O  0.86148163  0.43760810  0.08870110    -0.66000
Ni227      Ni  0.82227706  0.46090876  0.10248673     1.26300
O228        O  0.81106479  0.52496785  0.14748407    -0.66300
O229        O  0.79965600  0.41733297  0.10462433    -0.78500
C230        C  0.78881106  0.48767229  0.05971482     0.84900
O231        O  0.80822712  0.46396473  0.06745541    -0.65700
Ni232      Ni  0.86200819  0.42382886  0.15029175     1.27400
Ni233      Ni  0.85532477  0.50461724  0.13852957     1.26100
H234        H  0.86844703  0.49985511  0.09387824     0.39400
O235        O  0.01202390  0.29207612  0.46434024    -0.80500
O236        O  0.98757643  0.37047549  0.35929734    -0.65200
O237        O  0.99626984  0.34787690  0.43112725    -1.11800
C238        C  0.88217222  0.30888683  0.41766058     1.06400
O239        O  0.94164980  0.39883652  0.37163313    -0.78400
O240        O  0.90410535  0.39113575  0.41578303    -0.66000
Ni241      Ni  0.03656457  0.32797576  0.44574263     1.34900
C242        C  0.91063361  0.38599106  0.43947479     0.85100
O243        O  0.03835477  0.37969909  0.39354235    -0.78900
O244        O  0.06579668  0.36145998  0.42897372    -0.89200
C245        C  0.96392456  0.39211444  0.35446041     0.84700
O246        O  0.04480584  0.29645722  0.41867431    -0.67400
O247        O  0.88164473  0.33030327  0.39906314    -0.86700
C248        C  0.03503976  0.29315036  0.39543300     0.85500
C249        C  0.06460851  0.37895305  0.40812994     1.07100
H250        H  0.95072039  0.31658608  0.38660318     0.38900
O251        O  0.95058996  0.33714595  0.39699266    -1.09400
O252        O  0.93134659  0.36317616  0.44705543    -0.66000
Ni253      Ni  0.95311078  0.32401022  0.43197764     1.26300
O254        O  0.01493124  0.31435889  0.38402929    -0.66300
O255        O  0.90890574  0.30187706  0.43107708    -0.78500
C256        C  0.98202977  0.29047880  0.47417229     0.84900
O257        O  0.95795508  0.30962690  0.46670194    -0.65700
Ni258      Ni  0.91269771  0.36376614  0.38573773     1.27400
Ni259      Ni  0.99446661  0.35805221  0.39493830     1.26100
H260        H  0.99343182  0.36942107  0.44005499     0.39400
O261        O  0.71963754  0.02864814  0.05858424    -0.80500
O262        O  0.66305481  0.04014544  0.17098485    -0.65200
O263        O  0.67111017  0.04360010  0.09731443    -1.11800
C264        C  0.71263268  0.15367278  0.11492556     1.06400
O265        O  0.63235755  0.08716176  0.16645749    -0.78400
O266        O  0.62714236  0.12048000  0.12187242    -0.66000
Ni267      Ni  0.68453784  0.00473840  0.07742930     1.34900
C268        C  0.63220497  0.12325906  0.09785923     0.85100
O269        O  0.64627416  0.99510633  0.13435134    -0.78900
O270        O  0.65088295  0.97601918  0.09379758    -0.89200
C271        C  0.64329288  0.06286325  0.18035465     0.84700
O272        O  0.71906360  0.98938004  0.10056180    -0.67400
O273        O  0.68846371  0.15309981  0.13159007    -0.86700
C274        C  0.72901500  0.99768750  0.12309338     0.85500
C275        C  0.64026641  0.97289735  0.11694632     1.07100
H276        H  0.70956527  0.08261435  0.14347661     0.38900
O277        O  0.68819109  0.08333508  0.13401840    -1.09400
O278        O  0.65919012  0.11168429  0.08733083    -0.66000
Ni279      Ni  0.69804569  0.08515178  0.09834622     1.26300
O280        O  0.71268117  0.01848519  0.13774400    -0.66300
O281        O  0.72246176  0.12754757  0.10190007    -0.78500
C282        C  0.72579387  0.05941021  0.05221430     0.84900
O283        O  0.71045971  0.08433836  0.06278852    -0.65700
Ni284      Ni  0.66106901  0.11874105  0.14835841     1.27400
Ni285      Ni  0.66759634  0.03936560  0.13414112     1.26100
H286        H  0.64843091  0.04936686  0.09118719     0.39400
O287        O  0.51762145  0.22892316  0.46480722    -0.80500
O288        O  0.53302636  0.15932568  0.35585755    -0.65200
O289        O  0.53160496  0.17664388  0.42866312    -1.11800
C290        C  0.64326510  0.22021498  0.41083741     1.06400
O291        O  0.58147887  0.13272552  0.36394449    -0.78400
O292        O  0.62349720  0.13838067  0.40473526    -0.66000
Ni293      Ni  0.49213227  0.19458620  0.44581125     1.34900
C294        C  0.61931200  0.14013970  0.42892785     0.85100
O295        O  0.48675006  0.14582126  0.39208706    -0.78900
O296        O  0.46198889  0.16202276  0.42902675    -0.89200
C297        C  0.55609255  0.13806687  0.34916262     0.84700
O298        O  0.48139184  0.22852118  0.42090704    -0.67400
O299        O  0.64199212  0.20128330  0.39068191    -0.86700
C300        C  0.48914861  0.23352056  0.39743389     0.85500
C301        C  0.46183776  0.14504644  0.40790427     1.07100
H302        H  0.57131032  0.21305694  0.38376006     0.38900
O303        O  0.57331009  0.19153165  0.39277714    -1.09400
O304        O  0.59891672  0.16121592  0.43964401    -0.66000
Ni305      Ni  0.57441678  0.20137904  0.42847744     1.26300
O306        O  0.50769726  0.21289923  0.38411180    -0.66300
O307        O  0.61807493  0.22444054  0.42644555    -0.78500
C308        C  0.54832185  0.23152670  0.47308042     0.84900
O309        O  0.57241402  0.21332565  0.46407687    -0.65700
Ni310      Ni  0.61051301  0.16800753  0.37744137     1.27400
Ni311      Ni  0.52996356  0.16915480  0.39211521     1.26100
H312        H  0.53567944  0.15459438  0.43645577     0.39400
O313        O  0.50953793  0.73044716  0.05687656    -0.80500
O314        O  0.49317844  0.66865071  0.16951547    -0.65200
O315        O  0.49277442  0.68292963  0.09601907    -1.11800
C316        C  0.38383177  0.73013371  0.11487253     1.06400
O317        O  0.44406650  0.64163170  0.16367059    -0.78400
O318        O  0.40812510  0.64344563  0.11971261    -0.66000
Ni319      Ni  0.53304348  0.69716776  0.07769632     1.34900
C320        C  0.40902820  0.64795689  0.09553030     0.85100
O321        O  0.53806964  0.65273519  0.13309063    -0.78900
O322        O  0.56262196  0.66564093  0.09554503    -0.89200
C323        C  0.47027745  0.64796858  0.17743740     0.84700
O324        O  0.54432165  0.73265561  0.10116795    -0.67400
O325        O  0.38332425  0.70682953  0.13212524    -0.86700
C326        C  0.53712845  0.73959973  0.12452096     0.85500
C327        C  0.56299661  0.65100947  0.11744281     1.07100
H328        H  0.45476221  0.72043074  0.14262226     0.38900
O329        O  0.45262886  0.69952057  0.13280212    -1.09400
O330        O  0.42438279  0.67315677  0.08532847    -0.66000
Ni331      Ni  0.45173580  0.71097348  0.09728706     1.26300
O332        O  0.51858348  0.72034850  0.13894334    -0.66300
O333        O  0.41003669  0.73695666  0.10087694    -0.78500
C334        C  0.47890253  0.73741952  0.05039708     0.84900
O335        O  0.45320893  0.72457873  0.06185363    -0.65700
Ni336      Ni  0.41524165  0.67509527  0.14717813     1.27400
Ni337      Ni  0.49534546  0.67656794  0.13286472     1.26100
H338        H  0.48671233  0.66098884  0.08870807     0.39400
O339        O  0.28329683  0.52141062  0.45366247    -0.80500
O340        O  0.36731550  0.53343046  0.34968294    -0.65200
O341        O  0.34144248  0.53364135  0.42146130    -1.11800
C342        C  0.31283117  0.64770735  0.40360395     1.06400
O343        O  0.39929932  0.57792012  0.35985129    -0.78400
O344        O  0.39569732  0.60882333  0.40606697    -0.66000
Ni345      Ni  0.32023069  0.49524794  0.43773000     1.34900
C346        C  0.38547962  0.61058335  0.42923268     0.85100
O347        O  0.37259187  0.48557017  0.38662588    -0.78900
O348        O  0.35429874  0.46405279  0.42401274    -0.89200
C349        C  0.39026903  0.55521240  0.34365032     0.84700
O350        O  0.29031431  0.48484133  0.41017263    -0.67400
O351        O  0.33995963  0.64617427  0.38978905    -0.86700
C352        C  0.28724950  0.49421814  0.38688765     0.85500
C353        C  0.37169655  0.46160619  0.40318376     1.07100
H354        H  0.31734478  0.57744523  0.37253969     0.38900
O355        O  0.33623710  0.57629515  0.38461751    -1.09400
O356        O  0.35594698  0.59998716  0.43557547    -0.66000
Ni357      Ni  0.31839209  0.57726996  0.41857200     1.26300
O358        O  0.30902076  0.51308752  0.37502736    -0.66300
O359        O  0.29852782  0.62158855  0.41375635    -0.78500
C360        C  0.27932464  0.55243666  0.46072292     0.84900
O361        O  0.29798489  0.57624891  0.45199062    -0.65700
Ni362      Ni  0.36853097  0.61053000  0.37539488     1.27400
Ni363      Ni  0.35379121  0.53099549  0.38548003     1.26100
H364        H  0.36256680  0.53720591  0.43085312     0.39400
O365        O  0.01618147  0.79694280  0.06051469    -0.80500
O366        O  0.02973720  0.87813666  0.16486215    -0.65200
O367        O  0.02886751  0.85359378  0.09319322    -1.11800
C368        C  0.14249132  0.81897245  0.11310798     1.06400
O369        O  0.07515310  0.90802545  0.15418117    -0.78400
O370        O  0.11652148  0.90045822  0.11173545    -0.66000
Ni371      Ni  0.99028106  0.83359538  0.07639569     1.34900
C372        C  0.11289945  0.89303570  0.08798380     0.85100
O373        O  0.98215871  0.88484166  0.12815276    -0.78900
O374        O  0.95973451  0.86782760  0.09032680    -0.89200
C375        C  0.05258067  0.90010967  0.17079402     0.84700
O376        O  0.97912433  0.80347303  0.10348630    -0.67400
O377        O  0.14046177  0.84151193  0.13097016    -0.86700
C378        C  0.98737478  0.80015749  0.12703472     0.85500
C379        C  0.95812819  0.88436083  0.11158229     1.07100
H380        H  0.07101264  0.82542883  0.14083377     0.38900
O381        O  0.07134977  0.84533708  0.12984261    -1.09400
O382        O  0.09438830  0.86857157  0.08021297    -0.66000
Ni383      Ni  0.07226776  0.83011035  0.09528691     1.26300
O384        O  0.00687967  0.82106675  0.13926780    -0.66300
O385        O  0.11701677  0.80937213  0.09910965    -0.78500
C386        C  0.04688896  0.79458643  0.05240386     0.84900
O387        O  0.07075461  0.81335950  0.06087379    -0.65700
Ni388      Ni  0.10700432  0.87408007  0.14211455     1.27400
Ni389      Ni  0.02679198  0.86491352  0.12917432     1.26100
H390        H  0.03249565  0.87494178  0.08426485     0.39400
O391        O  0.22983020  0.01451387  0.45900825    -0.80500
O392        O  0.15895651  0.98940155  0.35314468    -0.65200
O393        O  0.17490707  0.99660452  0.42590095    -1.11800
C394        C  0.21603782  0.88388722  0.41464954     1.06400
O395        O  0.12947789  0.94263986  0.36241007    -0.78400
O396        O  0.13095703  0.90854180  0.40900336    -0.66000
Ni397      Ni  0.19219404  0.03708013  0.44169210     1.34900
C398        C  0.13644330  0.91272244  0.43302358     0.85100
O399        O  0.14682866  0.04025476  0.38718283    -0.78900
O400        O  0.15671957  0.06407638  0.42587430    -0.89200
C401        C  0.13767624  0.96618432  0.34656077     0.84700
O402        O  0.22334530  0.04912808  0.41527466    -0.67400
O403        O  0.19319861  0.88266879  0.39689157    -0.86700
C404        C  0.23110070  0.03741343  0.39318752     0.85500
C405        C  0.14304800  0.06456072  0.40346670     1.07100
H406        H  0.20932231  0.95129661  0.38224928     0.38900
O407        O  0.18829612  0.95153985  0.39209704    -1.09400
O408        O  0.16097738  0.93099722  0.44142517    -0.66000
Ni409      Ni  0.20014739  0.95441058  0.42742580     1.26300
O410        O  0.21297626  0.01500618  0.38125518    -0.66300
O411        O  0.22394660  0.91121413  0.42699064    -0.78500
C412        C  0.23238138  0.98520777  0.46937463     0.84900
O413        O  0.21382100  0.96029174  0.46242665    -0.65700
Ni414      Ni  0.16193771  0.91381952  0.38040770     1.27400
Ni415      Ni  0.16788750  0.99560215  0.38933960     1.26100
H416        H  0.15270446  0.99285193  0.43368179     0.39400
C417        C  0.06495048  0.90577842  0.24358805    -0.05100
C418        C  0.07474462  0.94035246  0.24671783     0.09100
C419        C  0.07224501  0.96274469  0.22547226    -0.02500
C420        C  0.06298142  0.95007998  0.20082427    -0.00700
C421        C  0.05533832  0.91493289  0.19731660    -0.04300
C422        C  0.05529980  0.89312164  0.21904351     0.02700
C423        C  0.09026399  0.95227412  0.27183067     0.09500
C424        C  0.07984488  0.99876109  0.22898436     0.35400
C425        C  0.04810239  0.85695670  0.21583575     0.38800
C426        C  0.12608478  0.95757951  0.27372717    -0.04700
C427        C  0.14142694  0.96482841  0.29790613     0.02400
C428        C  0.12117723  0.96606711  0.32052359    -0.04300
C429        C  0.08512649  0.96278849  0.31833109    -0.00500
C430        C  0.06974650  0.95624976  0.29408270    -0.03100
C431        C  0.14737372  0.95410464  0.25089809     0.36200
C432        C  0.06377261  0.96612926  0.34112534     0.39800
C433        C  0.17831121  0.96907126  0.29964331     0.38900
C434        C  0.03279808  0.95293314  0.29205807     0.35800
C435        C  0.06611211  0.88278648  0.26548912     0.36500
C436        C  0.06192308  0.97323356  0.17899371     0.39800
N437        N  0.20774144  0.97252928  0.30096298    -0.38300
N438        N  0.16421519  0.95136968  0.23261235    -0.39900
N439        N  0.04678422  0.96884659  0.35933264    -0.37600
N440        N  0.00331791  0.95023230  0.29043008    -0.40000
N441        N  0.08588801  0.02748162  0.23189699    -0.39800
N442        N  0.06124413  0.99178132  0.16162550    -0.37400
N443        N  0.04252561  0.82811085  0.21310380    -0.38500
N444        N  0.06678393  0.86447032  0.28298935    -0.40100
C445        C  0.27714962  0.73675524  0.39238763    -0.05100
C446        C  0.27864812  0.75083262  0.41751796     0.09100
C447        C  0.29059980  0.73074600  0.43818148    -0.02500
C448        C  0.30022531  0.69640496  0.43386627    -0.00700
C449        C  0.29861340  0.68221985  0.40871735    -0.04300
C450        C  0.28718552  0.70261486  0.38798601     0.02700
C451        C  0.26361097  0.78541313  0.42235601     0.09500
C452        C  0.29317838  0.74560285  0.46381038     0.35400
C453        C  0.28502614  0.68820551  0.36218539     0.38800
C454        C  0.22772664  0.78857188  0.42392537    -0.04700
C455        C  0.21239155  0.82106760  0.42333835     0.02400
C456        C  0.23290129  0.85085393  0.42118718    -0.04300
C457        C  0.26899665  0.84780213  0.42283171    -0.00500
C458        C  0.28434674  0.81499596  0.42311399    -0.03100
C459        C  0.20650745  0.75809006  0.42502319     0.36200
C460        C  0.29034639  0.87813910  0.42307747     0.39800
C461        C  0.17527934  0.82355131  0.42444478     0.38900
C462        C  0.32136044  0.81155987  0.42323425     0.35800
C463        C  0.26502704  0.75752588  0.37107297     0.36500
C464        C  0.31222007  0.67596682  0.45533577     0.39800
N465        N  0.14566156  0.82507813  0.42510814    -0.38300
N466        N  0.18972169  0.73372246  0.42582808    -0.39900
N467        N  0.30735680  0.90238124  0.42350295    -0.37600
N468        N  0.35091016  0.80875258  0.42341859    -0.40000
N469        N  0.29562809  0.75763344  0.48417566    -0.39800
N470        N  0.32140365  0.66003193  0.47279968    -0.37400
N471        N  0.28320977  0.67669675  0.34161321    -0.38500
N472        N  0.25532134  0.77422527  0.35416336    -0.40100
C473        C  0.30043175  0.75877723  0.08371584    -0.05100
C474        C  0.28260072  0.77159081  0.10534088     0.09100
C475        C  0.29962886  0.77468120  0.12932229    -0.02500
C476        C  0.33364692  0.76311587  0.13203156    -0.00700
C477        C  0.35110482  0.74872632  0.11068882    -0.04300
C478        C  0.33461126  0.74737383  0.08636556     0.02700
C479        C  0.24617097  0.78315127  0.10301727     0.09500
C480        C  0.28194549  0.78962141  0.15129945     0.35400
C481        C  0.35198999  0.73236780  0.06439377     0.38800
C482        C  0.21891890  0.75930298  0.10277930    -0.04700
C483        C  0.18455847  0.77071169  0.10465186     0.02400
C484        C  0.17757930  0.80595588  0.10757105    -0.04300
C485        C  0.20502018  0.82978608  0.10600831    -0.00500
C486        C  0.23897152  0.81835274  0.10333985    -0.03100
C487        C  0.22640247  0.72303767  0.10142259     0.36200
C488        C  0.19881777  0.86635984  0.10755957     0.39800
C489        C  0.15671640  0.74615053  0.10470955     0.38900
C490        C  0.26688396  0.84284576  0.10177675     0.35800
C491        C  0.28332390  0.75694637  0.05886945     0.36500
C492        C  0.35057072  0.76571688  0.15693857     0.39800
N493        N  0.13448884  0.72654237  0.10460557    -0.38300
N494        N  0.23251858  0.69412126  0.10024111    -0.39900
N495        N  0.19455815  0.89556885  0.10915836    -0.37600
N496        N  0.28924307  0.86222444  0.10063100    -0.40000
N497        N  0.26781694  0.80188299  0.16865972    -0.39800
N498        N  0.36393443  0.76773340  0.17685123    -0.37400
N499        N  0.36574642  0.72027512  0.04683338    -0.38500
N500        N  0.26942884  0.75546104  0.03914240    -0.40100
C501        C  0.46344958  0.57632829  0.22617701    -0.05100
C502        C  0.45615843  0.59496654  0.24887216     0.09100
C503        C  0.46076554  0.63083572  0.24898410    -0.02500
C504        C  0.46891202  0.64826259  0.22588529    -0.00700
C505        C  0.47293393  0.62987261  0.20260499    -0.04300
C506        C  0.47180150  0.59370642  0.20311745     0.02700
C507        C  0.43980020  0.57771292  0.27169896     0.09500
C508        C  0.45547680  0.64996081  0.27266941     0.35400
C509        C  0.47809652  0.57444548  0.17961024     0.38800
C510        C  0.45961313  0.56732512  0.29307676    -0.04700
C511        C  0.44332768  0.55657535  0.31607511     0.02400
C512        C  0.40707291  0.55582963  0.31778726    -0.04300
C513        C  0.38742736  0.56315312  0.29555361    -0.00500
C514        C  0.40374236  0.57405238  0.27261783    -0.03100
C515        C  0.49671056  0.56854455  0.29156183     0.36200
C516        C  0.35029359  0.56213804  0.29686154     0.39800
C517        C  0.46386296  0.54706646  0.33829249     0.38900
C518        C  0.38334135  0.58302060  0.25020488     0.35800
C519        C  0.46106388  0.53935063  0.22640123     0.36500
C520        C  0.47027499  0.68530541  0.22560170     0.39800
N521        N  0.48019404  0.53942455  0.35603651    -0.38300
N522        N  0.52633304  0.56934460  0.29029386    -0.39900
N523        N  0.32065714  0.56141088  0.29795387    -0.37600
N524        N  0.36722983  0.59015042  0.23222925    -0.40000
N525        N  0.45141299  0.66518424  0.29161903    -0.39800
N526        N  0.47122621  0.71487007  0.22520405    -0.37400
N527        N  0.48320445  0.55911016  0.16085264    -0.38500
N528        N  0.45924222  0.50982416  0.22666023    -0.40100
C529        C  0.37921069  0.09250052  0.41523931    -0.05100
C530        C  0.36780452  0.08961725  0.38943991     0.09100
C531        C  0.38864173  0.10232911  0.36943711    -0.02500
C532        C  0.41971656  0.11955431  0.37519580    -0.00700
C533        C  0.43068934  0.12382181  0.40126583    -0.04300
C534        C  0.41068506  0.10873877  0.42109328     0.02700
C535        C  0.33219990  0.07656989  0.38382624     0.09500
C536        C  0.37733929  0.09866808  0.34287638     0.35400
C537        C  0.42254699  0.10923325  0.44766988     0.38800
C538        C  0.30417963  0.09922876  0.38571665    -0.04700
C539        C  0.27029110  0.08664960  0.38485520     0.02400
C540        C  0.26395054  0.05108640  0.38252432    -0.04300
C541        C  0.29187764  0.02898854  0.37742781    -0.00500
C542        C  0.32597928  0.04168072  0.37833525    -0.03100
C543        C  0.31035674  0.13535855  0.39013234     0.36200
C544        C  0.28577684  0.99286071  0.37318027     0.39800
C545        C  0.24175856  0.11018482  0.38796224     0.38900
C546        C  0.35472163  0.01856961  0.37514975     0.35800
C547        C  0.35780641  0.07994259  0.43604447     0.36500
C548        C  0.43930802  0.13401521  0.35408097     0.39800
N549        N  0.21898150  0.12885816  0.39058455    -0.38300
N550        N  0.31548968  0.16411087  0.39377159    -0.39900
N551        N  0.28100156  0.96402184  0.36964541    -0.37600
N552        N  0.37769650  0.00011666  0.37264990    -0.40000
N553        N  0.36827127  0.09564557  0.32170580    -0.39800
N554        N  0.45475400  0.14539265  0.33707637    -0.37400
N555        N  0.43197602  0.10947562  0.46887142    -0.38500
N556        N  0.34085025  0.07048031  0.45289444    -0.40100
C557        C  0.47895173  0.32828047  0.38488046    -0.05100
C558        C  0.44280939  0.33096453  0.38350179     0.09100
C559        C  0.42319480  0.30082540  0.38072626    -0.02500
C560        C  0.43912652  0.26835139  0.38229027    -0.00700
C561        C  0.47494979  0.26562594  0.38609992    -0.04300
C562        C  0.49498193  0.29574009  0.38596389     0.02700
C563        C  0.42525868  0.36494697  0.38808285     0.09500
C564        C  0.38633749  0.30328958  0.37758194     0.35400
C565        C  0.53189728  0.29328570  0.38883676     0.38800
C566        C  0.41383037  0.38534763  0.36737540    -0.04700
C567        C  0.39736862  0.41717562  0.37207615     0.02400
C568        C  0.39141378  0.42888767  0.39782249    -0.04300
C569        C  0.40338029  0.40818992  0.41848023    -0.00500
C570        C  0.41962712  0.37645534  0.41359035    -0.03100
C571        C  0.41812476  0.37299083  0.34113928     0.36200
C572        C  0.40002155  0.41963720  0.44504520     0.39800
C573        C  0.38615156  0.43725157  0.35010908     0.38900
C574        C  0.42954438  0.35492067  0.43508422     0.35800
C575        C  0.49944620  0.35911440  0.38656350     0.36500
C576        C  0.41841425  0.23756505  0.38150561     0.39800
N577        N  0.37748874  0.45323727  0.33249009    -0.38300
N578        N  0.42119833  0.36300692  0.32020553    -0.39900
N579        N  0.39743900  0.42862397  0.46627251    -0.37600
N580        N  0.43683067  0.33782527  0.45243182    -0.40000
N581        N  0.35693592  0.30536809  0.37493719    -0.39800
N582        N  0.40197465  0.21294344  0.38095008    -0.37400
N583        N  0.56136693  0.29135812  0.39112379    -0.38500
N584        N  0.51568679  0.38381232  0.38794613    -0.40100
C585        C  0.82371724  0.98727190  0.13876502    -0.05100
C586        C  0.82835144  0.95236708  0.13251007     0.09100
C587        C  0.79936499  0.93167237  0.12777372    -0.02500
C588        C  0.76624737  0.94611057  0.12786103    -0.00700
C589        C  0.76180647  0.98171490  0.13156332    -0.04300
C590        C  0.79056663  0.00205161  0.13798222     0.02700
C591        C  0.86360061  0.93770995  0.12863430     0.09500
C592        C  0.80379886  0.89586770  0.12112367     0.35400
C593        C  0.78652384  0.03856608  0.14178233     0.38800
C594        C  0.87773309  0.91480159  0.14678169    -0.04700
C595        C  0.90926873  0.89834118  0.14163159     0.02400
C596        C  0.92620512  0.90355174  0.11774952    -0.04300
C597        C  0.91224728  0.92677795  0.09979285    -0.00500
C598        C  0.88161653  0.94440862  0.10552403    -0.03100
C599        C  0.85942494  0.90761999  0.17052674     0.36200
C600        C  0.92960710  0.93294814  0.07546589     0.39800
C601        C  0.92348229  0.87490712  0.16052478     0.38900
C602        C  0.86892154  0.96974866  0.08759014     0.35800
C603        C  0.85333342  0.00825313  0.14475217     0.36500
C604        C  0.73664582  0.92444842  0.12307322     0.39800
N605        N  0.93486828  0.85615676  0.17551342    -0.38300
N606        N  0.84476299  0.90160906  0.18939817    -0.39900
N607        N  0.94329550  0.93777758  0.05599288    -0.37600
N608        N  0.85982639  0.99049394  0.07328495    -0.40000
N609        N  0.80742537  0.86737734  0.11568086    -0.39800
N610        N  0.71301357  0.90727256  0.11921239    -0.37400
N611        N  0.78341102  0.06774458  0.14472992    -0.38500
N612        N  0.87704165  0.02494944  0.14945195    -0.40100
C613        C  0.54242823  0.83338196  0.14411893    -0.05100
C614        C  0.57679059  0.84078309  0.13753282     0.09100
C615        C  0.59921585  0.81359459  0.13141428    -0.02500
C616        C  0.58675233  0.77975679  0.12979004    -0.00700
C617        C  0.55158801  0.77261482  0.13419769    -0.04300
C618        C  0.52975509  0.79948444  0.14227334     0.02700
C619        C  0.58886837  0.87714485  0.13440550     0.09500
C620        C  0.63485468  0.82071819  0.12541189     0.35400
C621        C  0.49360856  0.79298511  0.14649028     0.38800
C622        C  0.61062742  0.89242383  0.15291154    -0.04700
C623        C  0.62691586  0.92400083  0.14761517     0.02400
C624        C  0.62059297  0.94128864  0.12398263    -0.04300
C625        C  0.59640769  0.92721807  0.10653660    -0.00500
C626        C  0.58090766  0.89530542  0.11163618    -0.03100
C627        C  0.61607896  0.87557885  0.17748058     0.36200
C628        C  0.58685031  0.94580699  0.08340587     0.39800
C629        C  0.65151923  0.93756576  0.16601602     0.38900
C630        C  0.55653414  0.88128226  0.09332253     0.35800
C631        C  0.51979816  0.86100271  0.15175970     0.36500
C632        C  0.60986481  0.75240012  0.12213976     0.39800
N633        N  0.67122277  0.94832255  0.18066481    -0.38300
N634        N  0.62006584  0.86233958  0.19721424    -0.39900
N635        N  0.57911199  0.96062830  0.06498773    -0.37600
N636        N  0.53668948  0.87090339  0.07865908    -0.40000
N637        N  0.66327266  0.82645358  0.12065890    -0.39800
N638        N  0.62813931  0.73060779  0.11580812    -0.37400
N639        N  0.46464936  0.78822217  0.14977135    -0.38500
N640        N  0.50179566  0.88311337  0.15786986    -0.40100
C641        C  0.62917498  0.09388308  0.24792078    -0.05100
C642        C  0.59617564  0.08058011  0.25288555     0.09100
C643        C  0.58150982  0.05670005  0.23565797    -0.02500
C644        C  0.59907080  0.04745266  0.21286671    -0.00700
C645        C  0.63122873  0.06214205  0.20727169    -0.04300
C646        C  0.64673595  0.08451602  0.22522392     0.02700
C647        C  0.57749604  0.09146344  0.27669649     0.09500
C648        C  0.54770127  0.04298484  0.24084401     0.35400
C649        C  0.68007897  0.09924511  0.21961432     0.38800
C650        C  0.55896872  0.12250099  0.27722702    -0.04700
C651        C  0.54712069  0.13592374  0.30095871     0.02400
C652        C  0.55521235  0.11900298  0.32424072    -0.04300
C653        C  0.56960209  0.08570538  0.32311841    -0.00500
C654        C  0.58099015  0.07216988  0.29942321    -0.03100
C655        C  0.55398104  0.14158501  0.25356618     0.36200
C656        C  0.57363292  0.06564050  0.34647421     0.39800
C657        C  0.52816773  0.16780572  0.30142397     0.38900
C658        C  0.59822852  0.03929256  0.29858456     0.35800
C659        C  0.64434336  0.11843347  0.26562776     0.36500
C660        C  0.58341059  0.02420201  0.19445212     0.39800
N661        N  0.51260171  0.19300331  0.30180742    -0.38300
N662        N  0.55014819  0.15697571  0.23473180    -0.39900
N663        N  0.57692386  0.04958217  0.36505066    -0.37600
N664        N  0.61203409  0.01311385  0.29780075    -0.40000
N665        N  0.52063403  0.03220839  0.24499838    -0.39800
N666        N  0.57110616  0.00564011  0.17967107    -0.37400
N667        N  0.70667596  0.11091867  0.21510746    -0.38500
N668        N  0.65626562  0.13821364  0.27966837    -0.40100
C669        C  0.09829544  0.22329959  0.38047145    -0.05100
C670        C  0.07622827  0.19474129  0.37907888     0.09100
C671        C  0.04058786  0.20024581  0.37610509    -0.02500
C672        C  0.02680746  0.23375926  0.37770089    -0.00700
C673        C  0.04861120  0.26193911  0.38229203    -0.04300
C674        C  0.08457054  0.25672534  0.38190710     0.02700
C675        C  0.09019112  0.15937801  0.38417540     0.09500
C676        C  0.01801100  0.17118408  0.37271828     0.35400
C677        C  0.10743065  0.28580878  0.38462317     0.38800
C678        C  0.08864127  0.14580559  0.40938576    -0.04700
C679        C  0.10345485  0.11372169  0.41506547     0.02400
C680        C  0.12249412  0.09568435  0.39607245    -0.04300
C681        C  0.12379910  0.10927111  0.37064695    -0.00500
C682        C  0.10688055  0.14039675  0.36465456    -0.03100
C683        C  0.07325483  0.16568029  0.43001800     0.36200
C684        C  0.14418688  0.09253157  0.35088589     0.39800
C685        C  0.09863500  0.09928819  0.44060606     0.38900
C686        C  0.10707497  0.15327316  0.33844004     0.35800
C687        C  0.13507002  0.21809526  0.38216872     0.36500
C688        C  0.99003828  0.23897130  0.37671171     0.39800
N689        N  0.09464178  0.08779805  0.46095488    -0.38300
N690        N  0.06169055  0.18142340  0.44683052    -0.39900
N691        N  0.16066879  0.07929540  0.33518578    -0.37600
N692        N  0.10699653  0.16339781  0.31746387    -0.40000
N693        N  0.00004451  0.14792219  0.36993443    -0.39800
N694        N  0.96068291  0.24322195  0.37590712    -0.37400
N695        N  0.12565546  0.30900021  0.38676609    -0.38500
N696        N  0.16439025  0.21380799  0.38351738    -0.40100
C697        C  0.14637344  0.43356704  0.41087737    -0.05100
C698        C  0.15618917  0.43461379  0.38461019     0.09100
C699        C  0.13544185  0.41827702  0.36598208    -0.02500
C700        C  0.10538855  0.40064458  0.37351910    -0.00700
C701        C  0.09567662  0.39901756  0.39998649    -0.04300
C702        C  0.11629758  0.41611503  0.41851172     0.02700
C703        C  0.18936268  0.45160509  0.37705495     0.09500
C704        C  0.14549621  0.41906925  0.33901268     0.35400
C705        C  0.10629307  0.41662199  0.44548547     0.38800
C706        C  0.21859124  0.43149498  0.37150752    -0.04700
C707        C  0.25132317  0.44685068  0.37009144     0.02400
C708        C  0.25515132  0.48230458  0.37452571    -0.04300
C709        C  0.22558600  0.50284544  0.37723780    -0.00500
C710        C  0.19276172  0.48756725  0.37844307    -0.03100
C711        C  0.21542603  0.39462317  0.36958324     0.36200
C712        C  0.22940292  0.53924400  0.38191524     0.39800
C713        C  0.28160772  0.42566848  0.36689953     0.38900
C714        C  0.16279103  0.50855878  0.38332534     0.35800
C715        C  0.16771501  0.45007104  0.43022692     0.36500
C716        C  0.08525814  0.38328802  0.35386443     0.39800
N717        N  0.30572732  0.40869889  0.36451711    -0.38300
N718        N  0.21281276  0.36521229  0.36808268    -0.39900
N719        N  0.23267772  0.56820437  0.38583312    -0.37600
N720        N  0.13893200  0.52529330  0.38748511    -0.40000
N721        N  0.15373426  0.41946377  0.31754754    -0.39800
N722        N  0.06921645  0.36962573  0.33809850    -0.37400
N723        N  0.09837210  0.41709826  0.46701922    -0.38500
N724        N  0.18475165  0.46336697  0.44556843    -0.40100
C725        C  0.73210147  0.25749948  0.40103161    -0.05100
C726        C  0.74662896  0.25356237  0.42581423     0.09100
C727        C  0.72646436  0.24105058  0.44622312    -0.02500
C728        C  0.69187798  0.23200938  0.44179343    -0.00700
C729        C  0.67717760  0.23581433  0.41687381    -0.04300
C730        C  0.69748577  0.24915579  0.39664796     0.02700
C731        C  0.78217293  0.26633455  0.43042596     0.09500
C732        C  0.74160701  0.23705009  0.47162593     0.35400
C733        C  0.68274972  0.25461471  0.37124018     0.38800
C734        C  0.78726286  0.30183227  0.43211339    -0.04700
C735        C  0.82015740  0.31553454  0.42854424     0.02400
C736        C  0.84868798  0.29358808  0.42469744    -0.04300
C737        C  0.84413208  0.25783216  0.42624335    -0.00500
C738        C  0.81071897  0.24419499  0.42883839    -0.03100
C739        C  0.75812366  0.32433658  0.43629863     0.36200
C740        C  0.87330924  0.23516036  0.42331475     0.39800
C741        C  0.82394490  0.35242305  0.42758494     0.38900
C742        C  0.80549112  0.20754032  0.42901108     0.35800
C743        C  0.75305202  0.27008938  0.37992567     0.36500
C744        C  0.67215413  0.21721385  0.46264511     0.39800
N745        N  0.82607704  0.38187200  0.42635568    -0.38300
N746        N  0.73486852  0.34216409  0.43974396    -0.39900
N747        N  0.89663191  0.21710599  0.42095369    -0.37600
N748        N  0.80135568  0.17825600  0.42932707    -0.40000
N749        N  0.75393502  0.23372065  0.49179793    -0.39800
N750        N  0.65651925  0.20534321  0.47932627    -0.37400
N751        N  0.67103961  0.25895154  0.35096817    -0.38500
N752        N  0.76990626  0.28008443  0.36318580    -0.40100
C753        C  0.93357070  0.65172055  0.11282154    -0.05100
C754        C  0.93152767  0.66714812  0.13744532     0.09100
C755        C  0.91366941  0.65052699  0.15743665    -0.02500
C756        C  0.89724786  0.61893235  0.15274066    -0.00700
C757        C  0.89846710  0.60377982  0.12780379    -0.04300
C758        C  0.91752445  0.62004399  0.10808448     0.02700
C759        C  0.94513599  0.70255591  0.14135976     0.09500
C760        C  0.91088947  0.66688030  0.18252839     0.35400
C761        C  0.92078294  0.60426375  0.08277572     0.38800
C762        C  0.92326043  0.73064719  0.13716970    -0.04700
C763        C  0.93675050  0.76398728  0.13661648     0.02400
C764        C  0.97247315  0.76946439  0.13949934    -0.04300
C765        C  0.99378336  0.74168477  0.14629559    -0.00500
C766        C  0.98007934  0.70819304  0.14716064    -0.03100
C767        C  0.88728920  0.72494424  0.13127976     0.36200
C768        C  0.03020841  0.74707033  0.15015078     0.39800
C769        C  0.91413405  0.79240903  0.13069392     0.38900
C770        C  0.00219889  0.67923425  0.15236814     0.19800
C771        C  0.95065809  0.66925698  0.09182330     0.36500
C772        C  0.87762653  0.60317887  0.17332473     0.39800
N773        N  0.89576414  0.81466737  0.12568018    -0.38300
N774        N  0.85870215  0.72032928  0.12635164    -0.39900
N775        N  0.05931142  0.75122239  0.15325766    -0.37600
N776        N  0.01970830  0.65596805  0.15644294    -0.40000
N777        N  0.90854446  0.68012583  0.20246319    -0.39800
N778        N  0.86199868  0.59066519  0.18977236    -0.37400
N779        N  0.92327949  0.59170836  0.06259379    -0.38500
N780        N  0.96371347  0.68291696  0.07466359    -0.40100
C781        C  0.72237557  0.61068127  0.14560700    -0.05100
C782        C  0.69350235  0.58908651  0.14705634     0.09100
C783        C  0.69821600  0.55394479  0.15218890    -0.02500
C784        C  0.73161918  0.53972967  0.15233934    -0.00700
C785        C  0.76029284  0.56073036  0.14738723    -0.04300
C786        C  0.75567710  0.59659082  0.14616084     0.02700
C787        C  0.65867656  0.60274193  0.14018431     0.09500
C788        C  0.66852642  0.53223384  0.15584894     0.35400
C789        C  0.78530607  0.61882157  0.14383447     0.38800
C790        C  0.64679858  0.60007921  0.11448722    -0.04700
C791        C  0.61476481  0.61404409  0.10734552     0.02400
C792        C  0.59481463  0.63235195  0.12560852    -0.04300
C793        C  0.60692767  0.63494042  0.15146365    -0.00500
C794        C  0.63849405  0.61990278  0.15867332    -0.03100
C795        C  0.66842029  0.58436649  0.09499529     0.36200
C796        C  0.58802757  0.65460751  0.17054547     0.39800
C797        C  0.60235131  0.60904399  0.08117233     0.38900
C798        C  0.65090531  0.62312696  0.18497657     0.35800
C799        C  0.71771826  0.64710544  0.14170609     0.36500
C800        C  0.73622101  0.50320409  0.15539991     0.39800
N801        N  0.59257713  0.60486319  0.06028715    -0.38300
N802        N  0.68578183  0.57242020  0.07926428    -0.39900
N803        N  0.57300976  0.67033077  0.18576609    -0.37600
N804        N  0.66083477  0.62584258  0.20594908    -0.40000
N805        N  0.64472600  0.51503295  0.15883690    -0.39800
N806        N  0.73984471  0.47402725  0.15784691    -0.37400
N807        N  0.80884693  0.63667186  0.14205041    -0.38500
N808        N  0.71387977  0.67613101  0.13852502    -0.40100
C809        C  0.73412864  0.23987906  0.08557320    -0.05100
C810        C  0.75196480  0.25545663  0.10617109     0.09100
C811        C  0.75862878  0.23671221  0.12893745    -0.02500
C812        C  0.74747310  0.20264131  0.13109683    -0.00700
C813        C  0.72907474  0.18720456  0.11070886    -0.04300
C814        C  0.72202738  0.20605236  0.08807092     0.02700
C815        C  0.76512560  0.29120346  0.10403263     0.09500
C816        C  0.77670926  0.25270961  0.15031480     0.35400
C817        C  0.70020630  0.19166353  0.06817377     0.38800
C818        C  0.74298934  0.31957080  0.10698359    -0.04700
C819        C  0.75674540  0.35285456  0.10950088     0.02400
C820        C  0.79263236  0.35734128  0.11131971    -0.04300
C821        C  0.81458428  0.32886111  0.10737488    -0.00500
C822        C  0.80072290  0.29641900  0.10226630    -0.03100
C823        C  0.70625114  0.31431410  0.10857189     0.36200
C824        C  0.85154838  0.33218221  0.10955659     0.39800
C825        C  0.73400124  0.38208967  0.11147744     0.38900
C826        C  0.82311822  0.26793352  0.09590821     0.35800
C827        C  0.72807458  0.25876424  0.06194263     0.36500
C828        C  0.75439601  0.18358428  0.15454735     0.39800
N829        N  0.71588151  0.40547809  0.11277320    -0.38300
N830        N  0.67693303  0.31008191  0.10992488    -0.39900
N831        N  0.88101332  0.33395127  0.11188297    -0.37600
N832        N  0.84080353  0.24521829  0.09058918    -0.40000
N833        N  0.79124554  0.26553923  0.16725766    -0.39800
N834        N  0.75986616  0.16841073  0.17325747    -0.37400
N835        N  0.68224543  0.18076444  0.05239390    -0.38500
N836        N  0.72323108  0.27388881  0.04311407    -0.40100
C837        C  0.89314262  0.46159130  0.25363996    -0.05100
C838        C  0.92874983  0.45577640  0.25653745     0.09100
C839        C  0.95090544  0.46293385  0.23569582    -0.02500
C840        C  0.93734677  0.47332841  0.21162424    -0.00700
C841        C  0.90149291  0.47634474  0.20811032    -0.04300
C842        C  0.87958567  0.47202801  0.22956861     0.02700
C843        C  0.94243547  0.44032336  0.28108752     0.09500
C844        C  0.98759186  0.45857488  0.23886010     0.35400
C845        C  0.84285474  0.47633769  0.22650191     0.38800
C846        C  0.94964214  0.40493190  0.28225192    -0.04700
C847        C  0.95859634  0.38944319  0.30597942     0.02400
C848        C  0.96069711  0.40924538  0.32880776    -0.04300
C849        C  0.95486380  0.44498379  0.32736578    -0.00500
C850        C  0.94613986  0.46043204  0.30357841    -0.03100
C851        C  0.94669292  0.38419559  0.25909779     0.36200
C852        C  0.95727441  0.46594531  0.35045634     0.39800
C853        C  0.96286328  0.35264667  0.30725065     0.38900
C854        C  0.94054075  0.49704494  0.30221638     0.35800
C855        C  0.87024165  0.45518020  0.27513730     0.36500
C856        C  0.96028247  0.48108638  0.19040026     0.39800
N857        N  0.96599302  0.32326895  0.30842440    -0.38300
N858        N  0.94448828  0.36770084  0.24058118    -0.39900
N859        N  0.95901605  0.48278340  0.36882713    -0.37600
N860        N  0.93616545  0.52626565  0.30104778    -0.40000
N861        N  0.01685595  0.45494885  0.24142041    -0.39800
N862        N  0.97854724  0.48761235  0.17351258    -0.37400
N863        N  0.81356901  0.47987911  0.22399284    -0.38500
N864        N  0.85201470  0.45004022  0.29231875    -0.40100
C865        C  0.94645598  0.28325226  0.03803717    -0.05100
C866        C  0.95126067  0.31776792  0.03102685     0.09100
C867        C  0.96532172  0.32562031  0.00669852    -0.02500
C868        C  0.97356554  0.29918904  0.98918038    -0.00700
C869        C  0.96786326  0.26459548  0.99580626    -0.04300
C870        C  0.95409335  0.25674995  0.02032166     0.02700
C871        C  0.93587865  0.34565404  0.04720295     0.09500
C872        C  0.97006849  0.36106275  0.99935330     0.35400
C873        C  0.94711184  0.22162026  0.02731562     0.38800
C874        C  0.95504257  0.36283981  0.06637363    -0.04700
C875        C  0.93943708  0.38845250  0.08182094     0.02400
C876        C  0.90436708  0.39682268  0.07832286    -0.04300
C877        C  0.88557746  0.37980951  0.05846031    -0.00500
C878        C  0.90131482  0.35447454  0.04315552    -0.03100
C879        C  0.99053844  0.35340018  0.07061995     0.36200
C880        C  0.84918475  0.38600825  0.05464481     0.39800
C881        C  0.95955786  0.40622778  0.10120711     0.38900
C882        C  0.88144850  0.33623426  0.02372880     0.35800
C883        C  0.93304452  0.27518269  0.06341441     0.36500
C884        C  0.98554269  0.30776641  0.96352724     0.39800
N885        N  0.97563554  0.42047468  0.11664983    -0.38300
N886        N  0.01882947  0.34568632  0.07406285    -0.39900
N887        N  0.82015558  0.39021064  0.05119720    -0.37600
N888        N  0.86571847  0.32147237  0.00835775    -0.40000
N889        N  0.97384199  0.38934159  0.99350362    -0.39800
N890        N  0.99471379  0.31455828  0.94294835    -0.37400
N891        N  0.94097084  0.19385839  0.03339665    -0.38500
N892        N  0.92262339  0.26884317  0.08376188    -0.40100
C893        C  0.83624676  0.08627665  0.95610621    -0.05100
C894        C  0.83915095  0.09112450  0.98298728     0.09100
C895        C  0.86915953  0.10593379  0.99330324    -0.02500
C896        C  0.89521013  0.11769339  0.97669468    -0.00700
C897        C  0.89010102  0.11770837  0.94959936    -0.04300
C898        C  0.86136054  0.09967530  0.93937027     0.02700
C899        C  0.80970738  0.08223991  0.00023048     0.09500
C900        C  0.87233093  0.11094833  0.02096334     0.35400
C901        C  0.85630416  0.09578493  0.91173252     0.38800
C902        C  0.81108641  0.05303644  0.01601593    -0.04700
C903        C  0.78343579  0.04515120  0.03250905     0.02400
C904        C  0.75367441  0.06621214  0.03302774    -0.04300
C905        C  0.75193508  0.09465259  0.01618674    -0.00500
C906        C  0.78011683  0.10299780  0.00034970    -0.03100
C907        C  0.84117004  0.03120144  0.01529363     0.36200
C908        C  0.72067350  0.11447372  0.01393720     0.39800
C909        C  0.78605083  0.01553936  0.04921988     0.38900
C910        C  0.77900805  0.13332152  0.98427309     0.35800
C911        C  0.80629775  0.06903422  0.94562369     0.36500
C912        C  0.92754009  0.12919806  0.98750800     0.39800
N913        N  0.78719708  0.99185225  0.06253403    -0.38300
N914        N  0.86528344  0.01395945  0.01464788    -0.39900
N915        N  0.69582264  0.13028533  0.01142497    -0.37600
N916        N  0.77861516  0.15745652  0.97141429    -0.40000
N917        N  0.87469134  0.11521020  0.04301819    -0.39800
N918        N  0.95370302  0.13788545  0.99579449    -0.37400
N919        N  0.85207919  0.09248258  0.88973303    -0.38500
N920        N  0.78231649  0.05549217  0.93728740    -0.40100
C921        C  0.95754343  0.07617653  0.73277139    -0.05100
C922        C  0.93803243  0.07677921  0.75566537     0.09100
C923        C  0.90432531  0.06336086  0.75529743    -0.02500
C924        C  0.88890557  0.05344067  0.73162641    -0.00700
C925        C  0.90713781  0.05694910  0.70813755    -0.04300
C926        C  0.94236701  0.06594829  0.70921777     0.02700
C927        C  0.95204652  0.09411717  0.77946670     0.09500
C928        C  0.88505192  0.06094216  0.77916569     0.35400
C929        C  0.96322502  0.06463585  0.68604916     0.38800
C930        C  0.95477524  0.13022532  0.78027296    -0.04700
C931        C  0.96591514  0.14699944  0.80300505     0.02400
C932        C  0.97272938  0.12798898  0.82551684    -0.04300
C933        C  0.97165476  0.09184865  0.82435519    -0.00500
C934        C  0.96201443  0.07497511  0.80129402    -0.03100
C935        C  0.94407152  0.15027649  0.75816677     0.36200
C936        C  0.97898729  0.07207577  0.84738246     0.39800
C937        C  0.96808546  0.18400498  0.80377679     0.38900
C938        C  0.96122804  0.03794102  0.80030027     0.35800
C939        C  0.99305597  0.08722819  0.73339864     0.36500
C940        C  0.85379456  0.04125706  0.73146699     0.39800
N941        N  0.97000344  0.21352146  0.80438551    -0.38300
N942        N  0.93532330  0.16618466  0.74054141    -0.39900
N943        N  0.98463151  0.05644985  0.86584985    -0.37600
N944        N  0.96053290  0.00837608  0.79958597    -0.40000
N945        N  0.86984240  0.05865788  0.79826830    -0.39800
N946        N  0.82583537  0.03132096  0.73141154    -0.37400
N947        N  0.98001214  0.06340625  0.66764883    -0.38500
N948        N  0.02131188  0.09624317  0.73402942    -0.40100
C949        C  0.89945649  0.17690194  0.54125609    -0.05100
C950        C  0.93443116  0.18479767  0.54446710     0.09100
C951        C  0.95374471  0.16706377  0.56319355    -0.02500
C952        C  0.93800098  0.14213507  0.57910617    -0.00700
C953        C  0.90230313  0.13559575  0.57718114    -0.04300
C954        C  0.88331894  0.15285675  0.55752326     0.02700
C955        C  0.95054921  0.21187319  0.52781729     0.09500
C956        C  0.98974364  0.17519445  0.56646470     0.35400
C957        C  0.84646453  0.14851164  0.55497805     0.38800
C958        C  0.94839558  0.24672930  0.53494051    -0.04700
C959        C  0.95961490  0.27248466  0.51778058     0.02400
C960        C  0.97366137  0.26358715  0.49349978    -0.04300
C961        C  0.97581696  0.22872135  0.48643220    -0.00500
C962        C  0.96466945  0.20300685  0.50360964    -0.03100
C963        C  0.93385644  0.25615549  0.55971880     0.36200
C964        C  0.98613388  0.21954294  0.46042113     0.39800
C965        C  0.95565072  0.30821977  0.52477215     0.38900
C966        C  0.96634402  0.16736688  0.49595616     0.35800
C967        C  0.87967138  0.19455570  0.52157341     0.36500
C968        C  0.95880583  0.12288954  0.59714621     0.39800
N969        N  0.95216781  0.33672650  0.53023262    -0.38300
N970        N  0.92240905  0.26394010  0.57949081    -0.39900
N971        N  0.99360989  0.21260827  0.43943177    -0.37600
N972        N  0.96763418  0.13890232  0.48988282    -0.40000
N973        N  0.01842776  0.18194366  0.56911633    -0.39800
N974        N  0.97554373  0.10735047  0.61136812    -0.37400
N975        N  0.81705867  0.14575515  0.55270313    -0.38500
N976        N  0.86388129  0.20858658  0.50590788    -0.40100
C977        C  0.70048959  0.10511483  0.45961288    -0.05100
C978        C  0.68729117  0.08854093  0.48153399     0.09100
C979        C  0.65148749  0.08597036  0.48500171    -0.02500
C980        C  0.62889443  0.10181790  0.46741354    -0.00700
C981        C  0.64199995  0.11900660  0.44558687    -0.04300
C982        C  0.67802295  0.11965162  0.44138089     0.02700
C983        C  0.71101294  0.07841388  0.50282202     0.09500
C984        C  0.63808451  0.06822003  0.50737415     0.35400
C985        C  0.69249861  0.13743408  0.41934829     0.38800
C986        C  0.71493318  0.10047001  0.52413243    -0.04700
C987        C  0.73630440  0.09118460  0.54481349     0.02400
C988        C  0.75634406  0.06104829  0.54349265    -0.04300
C989        C  0.75302628  0.03931648  0.52167954    -0.00500
C990        C  0.72995525  0.04773946  0.50162300    -0.03100
C991        C  0.69743110  0.13326827  0.52449442     0.36200
C992        C  0.77402173  0.00883171  0.51940174     0.39800
C993        C  0.73560461  0.11187134  0.56799030     0.38900
C994        C  0.72606612  0.02518850  0.47954841     0.35800
C995        C  0.73731503  0.10932266  0.45687056     0.36500
C996        C  0.59226588  0.10117284  0.47218397     0.39800
N997        N  0.73360364  0.12875131  0.58626477    -0.38300
N998        N  0.68380561  0.15955060  0.52467622    -0.39900
N999        N  0.79085155  0.98455794  0.51762969    -0.37600
N1000       N  0.72303127  0.00716783  0.46192949    -0.40000
N1001       N  0.62758002  0.05401765  0.52527139    -0.39800
N1002       N  0.56305844  0.10091644  0.47613799    -0.37400
N1003       N  0.70440667  0.15140336  0.40184121    -0.38500
N1004       N  0.76667454  0.11283533  0.45498012    -0.40100
C1005       C  0.66368337  0.46212915  0.97132243    -0.05100
C1006       C  0.68169257  0.44322328  0.99011644     0.09100
C1007       C  0.67513660  0.40814565  0.99306465    -0.02500
C1008       C  0.65263327  0.39130064  0.97608208    -0.00700
C1009       C  0.63493066  0.40984406  0.95651419    -0.04300
C1010       C  0.64018819  0.44554271  0.95461187     0.02700
C1011       C  0.70897246  0.45926135  0.00637806     0.09500
C1012       C  0.69223119  0.38919163  0.01350239     0.35400
C1013       C  0.62129227  0.46526808  0.93570076     0.38800
C1014       C  0.70060631  0.47298614  0.03076999    -0.04700
C1015       C  0.72685023  0.48287755  0.04795080     0.02400
C1016       C  0.76162530  0.47930768  0.04076224    -0.04300
C1017       C  0.77002120  0.46551429  0.01634245    -0.00500
C1018       C  0.74372751  0.45562024  0.99915851    -0.03100
C1019       C  0.66502049  0.47484337  0.03878881     0.36200
C1020       C  0.80565913  0.46071421  0.00913823     0.39800
C1021       C  0.71814673  0.49381505  0.07392382     0.38900
C1022       C  0.75233334  0.44006057  0.97452308     0.35800
C1023       C  0.66945879  0.49860699  0.96926950     0.36500
C1024       C  0.65028111  0.35433818  0.97792712     0.39800
N1025       N  0.71139706  0.50205107  0.09478488    -0.38300
N1026       N  0.63665196  0.47610193  0.04527440    -0.39900
N1027       N  0.83405927  0.45664385  0.00340550    -0.37600
N1028       N  0.75911800  0.42744477  0.95493775    -0.40000
N1029       N  0.70570734  0.37424147  0.02988628    -0.39800
N1030       N  0.64933247  0.32489855  0.97996627    -0.37400
N1031       N  0.60614361  0.48105494  0.92065053    -0.38500
N1032       N  0.67403505  0.52776343  0.96778686    -0.40100
C1033       C  0.58167671  0.25356862  0.03355792    -0.05100
C1034       C  0.56412148  0.22198984  0.03294041     0.09100
C1035       C  0.53610890  0.21761989  0.01601083    -0.02500
C1036       C  0.52767120  0.24343782  0.99812395    -0.00700
C1037       C  0.54623325  0.27463539  0.99791934    -0.04300
C1038       C  0.57174543  0.28025283  0.01691290     0.02700
C1039       C  0.57598217  0.19307715  0.04961668     0.09500
C1040       C  0.51640819  0.18617370  0.01672661     0.35400
C1041       C  0.58649372  0.31399881  0.02036413     0.38800
C1042       C  0.57178062  0.19471714  0.07660600    -0.04700
C1043       C  0.58829954  0.17073237  0.09266544     0.02400
C1044       C  0.60767520  0.14350152  0.08165166    -0.04300
C1045       C  0.60752493  0.13942463  0.05439706    -0.00500
C1046       C  0.59303571  0.16483692  0.03850817    -0.03100
C1047       C  0.55119980  0.22185528  0.08787091     0.36200
C1048       C  0.62243910  0.10924636  0.04248563     0.39800
C1049       C  0.58676619  0.17582749  0.12042155     0.38900
C1050       C  0.59697853  0.16269032  0.01067613     0.35800
C1051       C  0.61071000  0.25827005  0.05078888     0.36500
C1052       C  0.50059506  0.23721038  0.97945503     0.39800
N1053       N  0.58560276  0.18009709  0.14253570    -0.38300
N1054       N  0.53470016  0.24340338  0.09687252    -0.39900
N1055       N  0.63414844  0.08512505  0.03294767    -0.37600
N1056       N  0.60008650  0.16109549  0.98847905    -0.40000
N1057       N  0.50077503  0.16104820  0.01736989    -0.39800
N1058       N  0.47889831  0.23252598  0.96459350    -0.37400
N1059       N  0.59774618  0.34103723  0.02366898    -0.38500
N1060       N  0.63393734  0.26191045  0.06445669    -0.40100
C1061       C  0.79286146  0.25794741  0.90303029    -0.05100
C1062       C  0.77922136  0.25958409  0.92822286     0.09100
C1063       C  0.80023957  0.25170277  0.94957699    -0.02500
C1064       C  0.83451090  0.24104317  0.94566913    -0.00700
C1065       C  0.84808422  0.23906697  0.92032783    -0.04300
C1066       C  0.82731417  0.24864220  0.89913743     0.02700
C1067       C  0.74352717  0.27278017  0.93174496     0.09500
C1068       C  0.78640807  0.25411260  0.97548744     0.35400
C1069       C  0.84154248  0.24949555  0.87323613     0.38800
C1070       C  0.71515595  0.25035057  0.93175062    -0.04700
C1071       C  0.68141426  0.26334475  0.92916648     0.02400
C1072       C  0.67614946  0.29874842  0.92532430    -0.04300
C1073       C  0.70480819  0.32124063  0.92703399    -0.00500
C1074       C  0.73806786  0.30825732  0.93079109    -0.03100
C1075       C  0.72090449  0.21379760  0.93290108     0.36200
C1076       C  0.70077501  0.35794360  0.92409284     0.39800
C1077       C  0.65254527  0.24002757  0.92891203     0.38900
C1078       C  0.76718509  0.33138097  0.93228721     0.35800
C1079       C  0.77109551  0.26542711  0.88099296     0.36500
C1080       C  0.85515241  0.23072547  0.96764334     0.39800
N1081       N  0.62955937  0.22131451  0.92885235    -0.38300
N1082       N  0.72539357  0.18457682  0.93359907    -0.39900
N1083       N  0.69831658  0.38718979  0.92132751    -0.37600
N1084       N  0.79040849  0.34973842  0.93349206    -0.40000
N1085       N  0.77546225  0.25596506  0.99620845    -0.39800
N1086       N  0.87157685  0.22245473  0.98517915    -0.37400
N1087       N  0.85293849  0.25032382  0.85261556    -0.38500
N1088       N  0.75355774  0.27113647  0.86348719    -0.40100
C1089       C  0.74416336  0.30224833  0.58831689    -0.05100
C1090       C  0.75816281  0.28621679  0.61029220     0.09100
C1091       C  0.76217696  0.30480566  0.63349145    -0.02500
C1092       C  0.75038846  0.33866688  0.63519679    -0.00700
C1093       C  0.73459659  0.35414550  0.61369649    -0.04300
C1094       C  0.73259730  0.33638176  0.58994422     0.02700
C1095       C  0.76975355  0.24992592  0.60942913     0.09500
C1096       C  0.77797313  0.28875265  0.65577012     0.35400
C1097       C  0.71742653  0.35273414  0.56755326     0.38800
C1098       C  0.80424934  0.24276848  0.60369095    -0.04700
C1099       C  0.81790384  0.21024138  0.60903326     0.02400
C1100       C  0.79647299  0.18386282  0.61859774    -0.04300
C1101       C  0.76168285  0.19101192  0.62387102    -0.00500
C1102       C  0.74825858  0.22386195  0.61896982    -0.03100
C1103       C  0.82592831  0.26949407  0.59315800     0.36200
C1104       C  0.74069472  0.16586853  0.63693273     0.39800
C1105       C  0.85458579  0.20519960  0.60664089     0.38900
C1106       C  0.71259304  0.23132809  0.62457276     0.35800
C1107       C  0.74086182  0.28331092  0.56435617     0.36500
C1108       C  0.75439723  0.35767136  0.65913482     0.39800
N1109       N  0.88407693  0.20238490  0.60548106    -0.38300
N1110       N  0.84290693  0.29091332  0.58460691    -0.39900
N1111       N  0.72391415  0.14607933  0.64764445    -0.37600
N1112       N  0.68410609  0.23729660  0.62894133    -0.40000
N1113       N  0.79059100  0.27580220  0.67345585    -0.39800
N1114       N  0.75767227  0.37291027  0.67816993    -0.37400
N1115       N  0.70549440  0.36590926  0.54968695    -0.38500
N1116       N  0.73812432  0.26817603  0.54523509    -0.40100
C1117       C  0.56918163  0.46747629  0.73483036    -0.05100
C1118       C  0.58951817  0.45324228  0.75462678     0.09100
C1119       C  0.62544343  0.45122168  0.75141936    -0.02500
C1120       C  0.64068935  0.46150357  0.72800968    -0.00700
C1121       C  0.61998274  0.47237784  0.70727656    -0.04300
C1122       C  0.58433427  0.47658032  0.71102979     0.02700
C1123       C  0.57340824  0.43853505  0.77840277     0.09500
C1124       C  0.64648686  0.43670012  0.77172485     0.35400
C1125       C  0.56326970  0.48968813  0.69019582     0.38800
C1126       C  0.56523455  0.40336162  0.77933054    -0.04700
C1127       C  0.55586779  0.38802073  0.80299287     0.02400
C1128       C  0.55580163  0.40765465  0.82595495    -0.04300
C1129       C  0.56055264  0.44343847  0.82441687    -0.00500
C1130       C  0.56940147  0.45881077  0.80073182    -0.03100
C1131       C  0.56843055  0.38267312  0.75615735     0.36200
C1132       C  0.55649649  0.46439302  0.84737813     0.39800
C1133       C  0.54794357  0.35182694  0.80382329     0.38900
C1134       C  0.57586472  0.49525767  0.79953282     0.35800
C1135       C  0.53261144  0.47167710  0.73872222     0.36500
C1136       C  0.67756414  0.45918534  0.72470648     0.39800
N1137       N  0.54126870  0.32300627  0.80432678    -0.38300
N1138       N  0.57124559  0.36631008  0.73761936    -0.39900
N1139       N  0.55302130  0.48091678  0.86576765    -0.37600
N1140       N  0.58099713  0.52436202  0.79859009    -0.40000
N1141       N  0.66314709  0.42478689  0.78786818    -0.39800
N1142       N  0.70698427  0.45763579  0.72199334    -0.37400
N1143       N  0.54650416  0.50030089  0.67359417    -0.38500
N1144       N  0.50344569  0.47517834  0.74192437    -0.40100
C1145       C  0.77919844  0.45183422  0.49830197    -0.05100
C1146       C  0.81300339  0.45175906  0.50807121     0.09100
C1147       C  0.81921403  0.46299540  0.53355957    -0.02500
C1148       C  0.79168202  0.47376059  0.54931034    -0.00700
C1149       C  0.75776806  0.47367907  0.53959490    -0.04300
C1150       C  0.75174789  0.46321884  0.51386944     0.02700
C1151       C  0.84137463  0.43644919  0.49233649     0.09500
C1152       C  0.85375493  0.46178563  0.54394704     0.35400
C1153       C  0.71742775  0.46420132  0.50319157     0.38800
C1154       C  0.85800672  0.45558131  0.47297351    -0.04700
C1155       C  0.88244335  0.43983670  0.45662551     0.02400
C1156       C  0.89025393  0.40472098  0.45943613    -0.04300
C1157       C  0.87417358  0.38594010  0.47957574    -0.00500
C1158       C  0.84998060  0.40182639  0.49587192    -0.03100
C1159       C  0.84910782  0.49123623  0.46941135     0.36200
C1160       C  0.87985131  0.34943916  0.48242264     0.39800
C1161       C  0.89930790  0.45973887  0.43678029     0.38900
C1162       C  0.83241296  0.38202903  0.51554382     0.35800
C1163       C  0.77245989  0.43846123  0.47262755     0.36500
C1164       C  0.79806322  0.48310995  0.57600420     0.39800
N1165       N  0.91277735  0.47562785  0.42093931    -0.38300
N1166       N  0.84186034  0.51966013  0.46651963    -0.39900
N1167       N  0.88364300  0.32030315  0.48502587    -0.37600
N1168       N  0.81828047  0.36633169  0.53117438    -0.40000
N1169       N  0.88128627  0.46052765  0.55226235    -0.39800
N1170       N  0.80327024  0.49031598  0.59733191    -0.37400
N1171       N  0.69046876  0.46507019  0.49387281    -0.38500
N1172       N  0.76700249  0.42749423  0.45225545    -0.40100
C1173       C  0.57637426  0.33993316  0.57110828    -0.05100
C1174       C  0.58496253  0.34095685  0.54468082     0.09100
C1175       C  0.60405077  0.36882693  0.53518482    -0.02500
C1176       C  0.61525883  0.39478818  0.55214813    -0.00700
C1177       C  0.61170530  0.39096859  0.57927164    -0.04300
C1178       C  0.59069886  0.36387444  0.58853364     0.02700
C1179       C  0.57446786  0.31234089  0.52697667     0.09500
C1180       C  0.61333981  0.37017405  0.50806729     0.35400
C1181       C  0.58447825  0.35933769  0.61592369     0.38800
C1182       C  0.54988263  0.31793839  0.50744495    -0.04700
C1183       C  0.54213416  0.29180964  0.48957504     0.02400
C1184       C  0.55648245  0.25872783  0.49241298    -0.04300
C1185       C  0.57972221  0.25264768  0.51289330    -0.00500
C1186       C  0.58971515  0.27969091  0.52940914    -0.03100
C1187       C  0.53269962  0.35075955  0.50558334     0.36200
C1188       C  0.59251351  0.21840813  0.51761250     0.39800
C1189       C  0.52119184  0.29981581  0.46724482     0.38900
C1190       C  0.61636584  0.27418693  0.54854189     0.35800
C1191       C  0.55313210  0.31373781  0.58039319     0.36500
C1192       C  0.62920143  0.42603202  0.54149175     0.39800
N1193       N  0.50499908  0.30605495  0.44914225    -0.38300
N1194       N  0.51892525  0.37689108  0.50407481    -0.39900
N1195       N  0.60245099  0.19105254  0.52165261    -0.37600
N1196       N  0.63776432  0.27001245  0.56371721    -0.40000
N1197       N  0.62086503  0.37106390  0.48646292    -0.39800
N1198       N  0.63958974  0.45145265  0.53327393    -0.37400
N1199       N  0.57950593  0.35545134  0.63775381    -0.38500
N1200       N  0.53440097  0.29298311  0.58772090    -0.40100
C1201       C  0.20142640  0.05238664  0.88006838    -0.05100
C1202       C  0.19531545  0.08569563  0.88971707     0.09100
C1203       C  0.22341894  0.10708021  0.89543531    -0.02500
C1204       C  0.25716734  0.09441965  0.89356747    -0.00700
C1205       C  0.26319887  0.05962861  0.88727504    -0.04300
C1206       C  0.23539951  0.03951518  0.87847367     0.02700
C1207       C  0.15954100  0.09837344  0.89493880     0.09500
C1208       C  0.21745228  0.14151475  0.90494819     0.35400
C1209       C  0.24146499  0.00511658  0.86906986     0.38800
C1210       C  0.14621097  0.09733954  0.92025569    -0.04700
C1211       C  0.11464387  0.11341476  0.92618139     0.02400
C1212       C  0.09584288  0.13089048  0.90673676    -0.04300
C1213       C  0.10896932  0.13077586  0.88109035    -0.00500
C1214       C  0.14058810  0.11468160  0.87535685    -0.03100
C1215       C  0.16570342  0.08052198  0.94046283     0.36200
C1216       C  0.09117462  0.14881404  0.86061605     0.39800
C1217       C  0.10181581  0.11179222  0.95244761     0.38900
C1218       C  0.15450305  0.11612281  0.84941201     0.35800
C1219       C  0.17262642  0.03067258  0.87343435     0.36500
C1220       C  0.28584003  0.11701098  0.89904161     0.39800
N1221       N  0.09188026  0.11052438  0.97348197    -0.38300
N1222       N  0.18134471  0.06726116  0.95658482    -0.39900
N1223       N  0.07703966  0.16315595  0.84423548    -0.37600
N1224       N  0.16570565  0.11732460  0.82874708    -0.40000
N1225       N  0.21255901  0.16878995  0.91284933    -0.39800
N1226       N  0.30865878  0.13506217  0.90337560    -0.37400
N1227       N  0.24633183  0.97777766  0.86128183    -0.38500
N1228       N  0.14958833  0.01328473  0.86829487    -0.40100
C1229       C  0.44574854  0.14314779  0.91081595    -0.05100
C1230       C  0.43563660  0.16273724  0.88919711     0.09100
C1231       C  0.41119621  0.14915902  0.87187659    -0.02500
C1232       C  0.39460673  0.11789951  0.87738230    -0.00700
C1233       C  0.40274290  0.09952427  0.90018328    -0.04300
C1234       C  0.42925714  0.11183681  0.91637544     0.02700
C1235       C  0.44776401  0.19907728  0.88643040     0.09500
C1236       C  0.40293982  0.16768606  0.84844927     0.35400
C1237       C  0.44015267  0.09197092  0.93852520     0.38800
C1238       C  0.48200220  0.20667486  0.87954384    -0.04700
C1239       C  0.49452548  0.24056905  0.88159842     0.02400
C1240       C  0.47264574  0.26707831  0.89022177    -0.04300
C1241       C  0.43736124  0.26003610  0.89380756    -0.00500
C1242       C  0.42511511  0.22618955  0.89238006    -0.03100
C1243       C  0.50458361  0.17938057  0.87117003     0.36200
C1244       C  0.41372265  0.28769517  0.89972863     0.39800
C1245       C  0.53031038  0.24760889  0.87626689     0.38900
C1246       C  0.38943017  0.21911105  0.89827887     0.35800
C1247       C  0.47336668  0.15505193  0.92731565     0.36500
C1248       C  0.36800660  0.10562917  0.86005906     0.39800
N1249       N  0.55888499  0.25301218  0.87184296    -0.38300
N1250       N  0.52262917  0.15759042  0.86449525    -0.39900
N1251       N  0.39496611  0.30979805  0.90442300    -0.37600
N1252       N  0.36095218  0.21345541  0.90288006    -0.40000
N1253       N  0.39649512  0.18246146  0.82973272    -0.39800
N1254       N  0.34680245  0.09584816  0.84623574    -0.37400
N1255       N  0.44897447  0.07611040  0.95615622    -0.38500
N1256       N  0.49591684  0.16397975  0.94021514    -0.40100
C1257       C  0.24521604  0.95167179  0.02743584    -0.05100
C1258       C  0.21103434  0.95692018  0.01931317     0.09100
C1259       C  0.20454796  0.97083108  0.99472441    -0.02500
C1260       C  0.23211466  0.97890879  0.97816402    -0.00700
C1261       C  0.26640938  0.97319588  0.98613136    -0.04300
C1262       C  0.27278462  0.95931038  0.01079635     0.02700
C1263       C  0.18236607  0.94210576  0.03487385     0.09500
C1264       C  0.16943482  0.97533466  0.98607309     0.35400
C1265       C  0.30760031  0.95219361  0.01898639     0.38800
C1266       C  0.16307305  0.96227305  0.05224437    -0.04700
C1267       C  0.13914138  0.94668745  0.06904673     0.02400
C1268       C  0.13411005  0.91091113  0.06825181    -0.04300
C1269       C  0.15238032  0.89110845  0.04970295    -0.00500
C1270       C  0.17619961  0.90673561  0.03315484    -0.03100
C1271       C  0.16817212  0.99893848  0.05297543     0.36200
C1272       C  0.14885839  0.85415738  0.04844220     0.39800
C1273       C  0.11965115  0.96740074  0.08707378     0.38900
C1274       C  0.19547342  0.88614787  0.01477134     0.35800
C1275       C  0.25184600  0.93725704  0.05272635     0.36500
C1276       C  0.22499799  0.99057220  0.95215527     0.39800
N1277       N  0.10399209  0.98377477  0.10151226    -0.38300
N1278       N  0.17203092  0.02826467  0.05344962    -0.39900
N1279       N  0.14672929  0.82470664  0.04692132    -0.37600
N1280       N  0.21098185  0.86986996  0.00017759    -0.40000
N1281       N  0.14140862  0.97887377  0.97919601    -0.39800
N1282       N  0.21907827  0.99943440  0.93133288    -0.37400
N1283       N  0.33518154  0.94606239  0.02580649    -0.38500
N1284       N  0.25695338  0.92575658  0.07292218    -0.40100
C1285       C  0.43245285  0.87523699  0.98666598    -0.05100
C1286       C  0.44714355  0.84515608  0.97637792     0.09100
C1287       C  0.45055567  0.84189161  0.94938255    -0.02500
C1288       C  0.43566822  0.86635975  0.93271017    -0.00700
C1289       C  0.41736822  0.89491014  0.94298564    -0.04300
C1290       C  0.41842132  0.90031155  0.97010607     0.02700
C1291       C  0.45739051  0.81620700  0.99389392     0.09500
C1292       C  0.46881217  0.81270775  0.93875728     0.35400
C1293       C  0.40559908  0.93194397  0.98113127     0.38800
C1294       C  0.43776675  0.78578244  0.99434993    -0.04700
C1295       C  0.44657287  0.75889250  0.01126735     0.02400
C1296       C  0.47322346  0.76319010  0.02949237    -0.04300
C1297       C  0.49366088  0.79320072  0.02838073    -0.00500
C1298       C  0.48624720  0.81911987  0.01024819    -0.03100
C1299       C  0.40793318  0.78239972  0.97777495     0.36200
C1300       C  0.52208276  0.79779074  0.04617848     0.39800
C1301       C  0.42976271  0.72599633  0.00867574     0.38900
C1302       C  0.50826147  0.84891500  0.00848524     0.35800
C1303       C  0.43087653  0.87994968  0.01443929     0.36500
C1304       C  0.43861518  0.86097755  0.90505630     0.39800
N1305       N  0.41693453  0.69951495  0.00615276    -0.38300
N1306       N  0.38406895  0.77977154  0.96461472    -0.39900
N1307       N  0.54483309  0.80066640  0.06039313    -0.37600
N1308       N  0.52590707  0.87262248  0.00709461    -0.40000
N1309       N  0.48336643  0.78944710  0.93029322    -0.39800
N1310       N  0.44125304  0.85653334  0.88303327    -0.37400
N1311       N  0.39569538  0.95738558  0.98981446    -0.38500
N1312       N  0.42989234  0.88369110  0.03660508    -0.40100
C1313       C  0.68930035  0.98741445  0.64851518    -0.05100
C1314       C  0.68595098  0.95141508  0.64841227     0.09100
C1315       C  0.71559023  0.93117396  0.65183292    -0.02500
C1316       C  0.74839122  0.94656280  0.65318089    -0.00700
C1317       C  0.75217149  0.98240024  0.65052238    -0.04300
C1318       C  0.72226282  0.00281047  0.64910602     0.02700
C1319       C  0.65236414  0.93456860  0.64108766     0.09500
C1320       C  0.71262539  0.89420517  0.65148405     0.35400
C1321       C  0.72559306  0.03926467  0.64490087     0.38800
C1322       C  0.64292412  0.93194684  0.61481717    -0.04700
C1323       C  0.61313793  0.91366668  0.60727988     0.02400
C1324       C  0.59211762  0.89734403  0.62598126    -0.04300
C1325       C  0.60174514  0.90034317  0.65247967    -0.00500
C1326       C  0.63131715  0.91916874  0.65987143    -0.03100
C1327       C  0.66424912  0.94808866  0.59539407     0.36200
C1328       C  0.58230887  0.88289260  0.67236125     0.39800
C1329       C  0.60418302  0.91229785  0.58010875     0.38900
C1330       C  0.64021006  0.92281183  0.68694487     0.35800
C1331       C  0.65887221  0.00845838  0.64611667     0.36500
C1332       C  0.77865151  0.92501810  0.65421958     0.39800
N1333       N  0.59725776  0.91120311  0.55838253    -0.38300
N1334       N  0.68131200  0.96116278  0.58004481    -0.39900
N1335       N  0.56696390  0.86896822  0.68830535    -0.37600
N1336       N  0.64723366  0.92591960  0.70854526    -0.40000
N1337       N  0.71025635  0.86472076  0.65096236    -0.39800
N1338       N  0.80252006  0.90745207  0.65472002    -0.37400
N1339       N  0.72837908  0.06826360  0.64112501    -0.38500
N1340       N  0.63451727  0.02518154  0.64419302    -0.40100
C1341       C  0.52886379  0.69705362  0.64549356    -0.05100
C1342       C  0.56393009  0.68948806  0.64119990     0.09100
C1343       C  0.58746821  0.71678314  0.63846736    -0.02500
C1344       C  0.57572405  0.75082249  0.63790685    -0.00700
C1345       C  0.54025612  0.75802032  0.63879454    -0.04300
C1346       C  0.51699958  0.73125927  0.64402862     0.02700
C1347       C  0.57653827  0.65326590  0.63814578     0.09500
C1348       C  0.62373674  0.70985840  0.63480697     0.35400
C1349       C  0.48072087  0.73868205  0.64647113     0.38800
C1350       C  0.56847741  0.63415952  0.61566272    -0.04700
C1351       C  0.58629478  0.60355679  0.60999146     0.02400
C1352       C  0.61314534  0.59240923  0.62621059    -0.04300
C1353       C  0.61951323  0.61019930  0.64961389    -0.00500
C1354       C  0.60054841  0.63982918  0.65586751    -0.03100
C1355       C  0.54219211  0.64603778  0.59805491     0.36200
C1356       C  0.64706958  0.59937153  0.66660669     0.39800
C1357       C  0.57647769  0.58310552  0.58776283     0.38900
C1358       C  0.60661025  0.65732157  0.68019985     0.35800
C1359       C  0.50485994  0.66960203  0.65054900     0.36500
C1360       C  0.60012610  0.77866689  0.63542274     0.39800
N1361       N  0.56842718  0.56656379  0.57020787    -0.38300
N1362       N  0.52083714  0.65477541  0.58402685    -0.39900
N1363       N  0.66919370  0.59080150  0.68002958    -0.37600
N1364       N  0.61150279  0.67129082  0.69958808    -0.40000
N1365       N  0.65265004  0.70423436  0.63204258    -0.39800
N1366       N  0.61953811  0.80090434  0.63358955    -0.37400
N1367       N  0.45176832  0.74460725  0.64855409    -0.38500
N1368       N  0.48557046  0.64776030  0.65450852    -0.40100
C1369       C  0.39098589  0.95482974  0.77337442    -0.05100
C1370       C  0.42696268  0.95409173  0.77002601     0.09100
C1371       C  0.44835700  0.96810984  0.78929052    -0.02500
C1372       C  0.43416627  0.97939996  0.81287901    -0.00700
C1373       C  0.39846986  0.97709441  0.81719177    -0.04300
C1374       C  0.37674876  0.96639313  0.79691723     0.02700
C1375       C  0.44225885  0.93712057  0.74672410     0.09500
C1376       C  0.48504932  0.96997886  0.78504393     0.35400
C1377       C  0.33994620  0.96515756  0.80093408     0.38800
C1378       C  0.45171705  0.95664589  0.72504869    -0.04700
C1379       C  0.46284529  0.94022449  0.70226837     0.02400
C1380       C  0.46345020  0.90416650  0.70069547    -0.04300
C1381       C  0.45696514  0.88471185  0.72309626    -0.00500
C1382       C  0.44666636  0.90123421  0.74615411    -0.03100
C1383       C  0.44900832  0.99357954  0.72597960     0.36200
C1384       C  0.45913743  0.84771805  0.72208618     0.39800
C1385       C  0.47367097  0.96035567  0.68025927     0.38900
C1386       C  0.43989838  0.88136415  0.76919962     0.35800
C1387       C  0.36872889  0.94274111  0.75284495     0.36500
C1388       C  0.45636157  0.99249236  0.83310184     0.39800
N1389       N  0.48272063  0.97622186  0.66271497    -0.38300
N1390       N  0.44683882  0.02306656  0.72677839    -0.39900
N1391       N  0.46094109  0.81819374  0.72134776    -0.37600
N1392       N  0.43469096  0.86565199  0.78768952    -0.40000
N1393       N  0.51429038  0.97165769  0.78145908    -0.39800
N1394       N  0.47403228  0.00304756  0.84922487    -0.37400
N1395       N  0.31060250  0.96426876  0.80423345    -0.38500
N1396       N  0.35095106  0.93320806  0.73642833    -0.40100
C1397       C  0.27735749  0.95975625  0.53159358    -0.05100
C1398       C  0.31212567  0.96428257  0.52470649     0.09100
C1399       C  0.32039217  0.97874485  0.50060974    -0.02500
C1400       C  0.29423611  0.98555107  0.48252078    -0.00700
C1401       C  0.25951227  0.97954188  0.48895046    -0.04300
C1402       C  0.25111683  0.96713974  0.51370513     0.02700
C1403       C  0.33932764  0.94658946  0.54005633     0.09500
C1404       C  0.35593462  0.98541928  0.49411014     0.35400
C1405       C  0.21557075  0.96095933  0.52048748     0.38800
C1406       C  0.34271227  0.91093322  0.53729205    -0.04700
C1407       C  0.36602515  0.89277208  0.55274675     0.02400
C1408       C  0.38664982  0.91012701  0.57124511    -0.04300
C1409       C  0.38396612  0.94613925  0.57340415    -0.00500
C1410       C  0.36049141  0.96433247  0.55768478    -0.03100
C1411       C  0.32091405  0.89260033  0.51910865     0.36200
C1412       C  0.40512336  0.96445694  0.59184844     0.39800
C1413       C  0.36597345  0.85574265  0.55090787     0.38900
C1414       C  0.35757804  0.00115499  0.55989800     0.35800
C1415       C  0.26878241  0.94604677  0.55676963     0.36500
C1416       C  0.30333362  0.99532157  0.45641922     0.39800
N1417       N  0.36482843  0.82628029  0.54907763    -0.38300
N1418       N  0.30332217  0.87805820  0.50480150    -0.39900
N1419       N  0.42194220  0.97911123  0.60661019    -0.37600
N1420       N  0.35528906  0.03058284  0.56151370    -0.40000
N1421       N  0.38423991  0.99121121  0.48903395    -0.39800
N1422       N  0.31058542  0.00240756  0.43545203    -0.37400
N1423       N  0.18722284  0.95581457  0.52582250    -0.38500
N1424       N  0.26195864  0.93512752  0.57686270    -0.40100
C1425       C  0.42813415  0.73820493  0.49948568    -0.05100
C1426       C  0.44499551  0.70647410  0.50178336     0.09100
C1427       C  0.47315476  0.70336071  0.51865096    -0.02500
C1428       C  0.48346123  0.73138373  0.53412676    -0.00700
C1429       C  0.46569109  0.76310688  0.53276088    -0.04300
C1430       C  0.43876387  0.76652865  0.51448271     0.02700
C1431       C  0.43453242  0.67720975  0.48474263     0.09500
C1432       C  0.49184162  0.67131966  0.51969133     0.35400
C1433       C  0.42367775  0.79970020  0.50940424     0.38800
C1434       C  0.44788278  0.67479427  0.45957871    -0.04700
C1435       C  0.43377995  0.65144580  0.44165951     0.02400
C1436       C  0.40701865  0.62876235  0.44922924    -0.04300
C1437       C  0.39748342  0.62811298  0.47578997    -0.00500
C1438       C  0.40986491  0.65336247  0.49301794    -0.03100
C1439       C  0.47532111  0.69762634  0.45183361     0.36200
C1440       C  0.37461762  0.60192560  0.48566332     0.39800
C1441       C  0.44600964  0.65264691  0.41521434     0.38900
C1442       C  0.39586647  0.65598973  0.51890664     0.35800
C1443       C  0.40026479  0.74176937  0.48106548     0.36500
C1444       C  0.51250525  0.72731256  0.55136934     0.39800
N1445       N  0.45572261  0.65395589  0.39412171    -0.38300
N1446       N  0.49731340  0.71575188  0.44576956    -0.39900
N1447       N  0.35640889  0.58116184  0.49371070    -0.37600
N1448       N  0.38433077  0.65831031  0.53942613    -0.40000
N1449       N  0.50679061  0.64576947  0.52030668    -0.39800
N1450       N  0.53595579  0.72465102  0.56493741    -0.37400
N1451       N  0.41189190  0.82605801  0.50452608    -0.38500
N1452       N  0.37823462  0.74430959  0.46620419    -0.40100
C1453       C  0.08697815  0.39117244  0.91806449    -0.05100
C1454       C  0.08907358  0.37472772  0.89379516     0.09100
C1455       C  0.10707304  0.39078486  0.87356486    -0.02500
C1456       C  0.12494628  0.42173675  0.87802504    -0.00700
C1457       C  0.12423255  0.43755643  0.90274891    -0.04300
C1458       C  0.10423632  0.42243266  0.92249889     0.02700
C1459       C  0.07539931  0.33897298  0.89046236     0.09500
C1460       C  0.10749717  0.37507936  0.84816261     0.35400
C1461       C  0.10111397  0.43904590  0.94748999     0.38800
C1462       C  0.04005957  0.33283982  0.88644417    -0.04700
C1463       C  0.02705828  0.29898555  0.88688820     0.02400
C1464       C  0.04933672  0.27118462  0.89166440    -0.04300
C1465       C  0.08504394  0.27719420  0.89293350    -0.00500
C1466       C  0.09796829  0.31089102  0.89275543    -0.03100
C1467       C  0.01692086  0.36151976  0.88324306     0.36200
C1468       C  0.10841554  0.24846643  0.89526167     0.39800
C1469       C  0.99052474  0.29304207  0.88422532     0.38900
C1470       C  0.13434550  0.31680183  0.89662167     0.35800
C1471       C  0.06756223  0.37559992  0.93879055     0.36500
C1472       C  0.14562080  0.43605980  0.85743333     0.39800
N1473       N  0.96132375  0.28849102  0.88213116    -0.38300
N1474       N  0.99848055  0.38447980  0.88081992    -0.39900
N1475       N  0.12692922  0.22544159  0.89694389    -0.37600
N1476       N  0.16331248  0.32164026  0.89987174    -0.40000
N1477       N  0.10762858  0.36265320  0.82785235    -0.39800
N1478       N  0.16220278  0.44742933  0.84103959    -0.37400
N1479       N  0.09864534  0.45223876  0.96744080    -0.38500
N1480       N  0.05214201  0.36362803  0.95555842    -0.40100
C1481       C  0.38336660  0.41645101  0.86917768    -0.05100
C1482       C  0.36779775  0.44038543  0.88594261     0.09100
C1483       C  0.38448748  0.44916977  0.90931283    -0.02500
C1484       C  0.41544965  0.43290164  0.91646885    -0.00700
C1485       C  0.43022502  0.40767509  0.90030372    -0.04300
C1486       C  0.41426491  0.40002479  0.87634378     0.02700
C1487       C  0.33209116  0.45344118  0.88076235     0.09500
C1488       C  0.36922223  0.47436286  0.92643878     0.35400
C1489       C  0.42835055  0.37359703  0.85971267     0.38800
C1490       C  0.30374803  0.43150150  0.88454018    -0.04700
C1491       C  0.27020564  0.44491354  0.88530950     0.02400
C1492       C  0.26467695  0.48051541  0.88313427    -0.04300
C1493       C  0.29255486  0.50203235  0.87695829    -0.00500
C1494       C  0.32611981  0.48835745  0.87525147    -0.03100
C1495       C  0.30918404  0.39540478  0.88946067     0.36200
C1496       C  0.28727015  0.53861875  0.87492801     0.39800
C1497       C  0.24137920  0.42237924  0.89038469     0.38900
C1498       C  0.35476946  0.51047768  0.86911204     0.35800
C1499       C  0.36689908  0.40792303  0.84486961     0.36500
C1500       C  0.43202130  0.44219542  0.94057799     0.39800
N1501       N  0.21831462  0.40464706  0.89462500    -0.38300
N1502       N  0.31345563  0.36659016  0.89332399    -0.39900
N1503       N  0.28306589  0.56783977  0.87349096    -0.37600
N1504       N  0.37759199  0.52816991  0.86412834    -0.40000
N1505       N  0.35712406  0.49466891  0.93994589    -0.39800
N1506       N  0.44511042  0.44965131  0.95985628    -0.37400
N1507       N  0.43956534  0.35239836  0.84655506    -0.38500
N1508       N  0.35362750  0.40098326  0.82555422    -0.40100
C1509       C  0.22778703  0.74327567  0.92553629    -0.05100
C1510       C  0.26276237  0.74847012  0.92029973     0.09100
C1511       C  0.28424834  0.72022675  0.91518233    -0.02500
C1512       C  0.27013362  0.68704550  0.91325063    -0.00700
C1513       C  0.23430182  0.68238321  0.91560377    -0.04300
C1514       C  0.21348493  0.71048657  0.92287588     0.02700
C1515       C  0.27574603  0.78410324  0.91746976     0.09500
C1516       C  0.32064879  0.72560216  0.91120619     0.35400
C1517       C  0.17714395  0.70594381  0.92749020     0.38800
C1518       C  0.29039839  0.80154489  0.93861438    -0.04700
C1519       C  0.30128603  0.83574365  0.93584521     0.02400
C1520       C  0.29695269  0.85270767  0.91196626    -0.04300
C1521       C  0.28187793  0.83519876  0.89092094    -0.00500
C1522       C  0.27162879  0.80092194  0.89360950    -0.03100
C1523       C  0.29499323  0.78388388  0.96294446     0.36200
C1524       C  0.27713587  0.85241473  0.86636949     0.39800
C1525       C  0.31885992  0.85265714  0.95703546     0.38900
C1526       C  0.25750655  0.78258007  0.87162925     0.35800
C1527       C  0.20641253  0.77199467  0.93314414     0.36500
C1528       C  0.29231087  0.65815283  0.90785180     0.39800
N1529       N  0.33309671  0.86599931  0.97389944    -0.38300
N1530       N  0.29877135  0.76956539  0.98226008    -0.39900
N1531       N  0.27343117  0.86613885  0.84679311    -0.37600
N1532       N  0.24647632  0.76782365  0.85408873    -0.40000
N1533       N  0.34970151  0.73000933  0.90810078    -0.39800
N1534       N  0.31018459  0.63513869  0.90377182    -0.37400
N1535       N  0.14804683  0.70277838  0.93096302    -0.38500
N1536       N  0.18952315  0.79490616  0.93938326    -0.40100
C1537       C  0.07131107  0.67758964  0.95894171    -0.05100
C1538       C  0.08713025  0.68560932  0.98268597     0.09100
C1539       C  0.11499025  0.66571676  0.99129398    -0.02500
C1540       C  0.12740726  0.63865355  0.97600777    -0.00700
C1541       C  0.11591978  0.63462580  0.95009418    -0.04300
C1542       C  0.08596441  0.65275402  0.94237853     0.02700
C1543       C  0.07392020  0.71405716  0.99933724     0.09500
C1544       C  0.13179952  0.67381581  0.01561321     0.35400
C1545       C  0.07002599  0.64637413  0.91751050     0.38800
C1546       C  0.05785003  0.70638617  0.02305020    -0.04700
C1547       C  0.04971548  0.73278248  0.04052055     0.02400
C1548       C  0.05554123  0.76721338  0.03375385    -0.04300
C1549       C  0.07052454  0.77508661  0.00969976    -0.00500
C1550       C  0.07985109  0.74855991  0.99255450    -0.03100
C1551       C  0.05007372  0.67118119  0.02957893     0.36200
C1552       C  0.07640953  0.81047572  0.00263239     0.39800
C1553       C  0.03796965  0.72441700  0.06631715     0.38900
C1554       C  0.09568409  0.75691743  0.96804627     0.35800
C1555       C  0.04023127  0.69538214  0.95144738     0.36500
C1556       C  0.15093683  0.61447147  0.98772521     0.39800
N1557       N  0.02933640  0.71803617  0.08712297    -0.38300
N1558       N  0.04388019  0.64307358  0.03468769    -0.39900
N1559       N  0.08114115  0.83869676  0.99700691    -0.37600
N1560       N  0.10791337  0.76416551  0.94846041    -0.40000
N1561       N  0.14537765  0.68037073  0.03488691    -0.39800
N1562       N  0.16900902  0.59506735  0.99767397    -0.37400
N1563       N  0.05718825  0.64141628  0.89768559    -0.38500
N1564       N  0.01536696  0.70954968  0.94558726    -0.40100
C1565       C  0.37789607  0.60224479  0.03485428    -0.05100
C1566       C  0.34474651  0.59227649  0.04251118     0.09100
C1567       C  0.33480985  0.59552383  0.06852749    -0.02500
C1568       C  0.35669088  0.61174960  0.08643096    -0.00700
C1569       C  0.38916539  0.62438823  0.07839587    -0.04300
C1570       C  0.40023569  0.61788868  0.05276276     0.02700
C1571       C  0.31869745  0.58248649  0.02268082     0.09500
C1572       C  0.30124881  0.58349112  0.07654950     0.35400
C1573       C  0.43445918  0.62754772  0.04458502     0.38800
C1574       C  0.31606187  0.54863447  0.01377640    -0.04700
C1575       C  0.29062302  0.53957868  0.99553488     0.02400
C1576       C  0.26670587  0.56444921  0.98642909    -0.04300
C1577       C  0.27074172  0.59904336  0.99503965    -0.00500
C1578       C  0.29666494  0.60772846  0.01284788    -0.03100
C1579       C  0.34011330  0.52323039  0.02319376     0.36200
C1580       C  0.24912848  0.62662968  0.98562655     0.39800
C1581       C  0.29045715  0.50478508  0.98574030     0.38900
C1582       C  0.30121619  0.64312370  0.02083646     0.35800
C1583       C  0.38837993  0.59759069  0.00820436     0.36500
C1584       C  0.34433474  0.61735316  0.11255329     0.39800
N1585       N  0.29073867  0.47705374  0.97787091    -0.38300
N1586       N  0.35947110  0.50310863  0.03065184    -0.39900
N1587       N  0.23234625  0.64903058  0.97830960    -0.37600
N1588       N  0.30493207  0.67133217  0.02702648    -0.40000
N1589       N  0.27452790  0.57384498  0.08295601    -0.39800
N1590       N  0.33433280  0.62174967  0.13334323    -0.37400
N1591       N  0.46173251  0.63521215  0.03796782    -0.38500
N1592       N  0.39657596  0.59377443  0.98691571    -0.40100
C1593       C  0.91556833  0.80191085  0.64430257    -0.05100
C1594       C  0.93640110  0.83140200  0.64386724     0.09100
C1595       C  0.97242909  0.82767308  0.64529048    -0.02500
C1596       C  0.98756250  0.79477310  0.64396436    -0.00700
C1597       C  0.96665896  0.76542845  0.64173545    -0.04300
C1598       C  0.93068193  0.76907911  0.64382404     0.02700
C1599       C  0.92055763  0.86601213  0.63935679     0.09500
C1600       C  0.99388640  0.85785657  0.64680232     0.35400
C1601       C  0.90915515  0.73885477  0.64446868     0.38800
C1602       C  0.90576725  0.88475570  0.65982357    -0.04700
C1603       C  0.88984400  0.91672256  0.65512477     0.02400
C1604       C  0.88872195  0.93050060  0.62972768    -0.04300
C1605       C  0.90455086  0.91187901  0.60943351    -0.00500
C1606       C  0.91946454  0.87957349  0.61413495    -0.03100
C1607       C  0.90604693  0.87053381  0.68565329     0.36200
C1608       C  0.90644267  0.92614947  0.58362403     0.39800
C1609       C  0.87352198  0.93454918  0.67645111     0.38900
C1610       C  0.93222127  0.85950769  0.59260118     0.35800
C1611       C  0.87855260  0.80538575  0.64351165     0.36500
C1612       C  0.02455036  0.79132968  0.64261206     0.39800
N1613       N  0.86039445  0.94867970  0.69345363    -0.38300
N1614       N  0.90608752  0.85906735  0.70622951    -0.39900
N1615       N  0.90812002  0.93750363  0.56304818    -0.37600
N1616       N  0.94159124  0.84364422  0.57508615    -0.40000
N1617       N  0.01093647  0.88201119  0.64810510    -0.39800
N1618       N  0.05405899  0.78860747  0.64131138    -0.37400
N1619       N  0.89192487  0.71479642  0.64524152    -0.38500
N1620       N  0.84902359  0.80822699  0.64273188    -0.40100
C1621       C  0.87863331  0.61172797  0.65655769    -0.05100
C1622       C  0.85971902  0.59462715  0.63726120     0.09100
C1623       C  0.87358947  0.59148454  0.61219818    -0.02500
C1624       C  0.90559605  0.60636567  0.60617188    -0.00700
C1625       C  0.92366818  0.62570155  0.62494419    -0.04300
C1626       C  0.91051911  0.62705496  0.65056495     0.02700
C1627       C  0.82379756  0.58252454  0.64233562     0.09500
C1628       C  0.85406371  0.57410656  0.59222735     0.35400
C1629       C  0.92885904  0.64530579  0.67074089     0.38800
C1630       C  0.79606588  0.60452220  0.63700167    -0.04700
C1631       C  0.76232190  0.59161725  0.63623358     0.02400
C1632       C  0.75595224  0.55648568  0.64085648    -0.04300
C1633       C  0.78321345  0.53562559  0.64962792    -0.00500
C1634       C  0.81720091  0.54846181  0.64981479    -0.03100
C1635       C  0.80261202  0.64002070  0.63061311     0.36200
C1636       C  0.77683981  0.50038143  0.65673223     0.39800
C1637       C  0.73423566  0.61423241  0.62935770     0.38900
C1638       C  0.84565337  0.52609025  0.65602921     0.35800
C1639       C  0.86447294  0.61478315  0.68235636     0.36500
C1640       C  0.92019739  0.60094289  0.58072845     0.39800
N1641       N  0.71186710  0.63217692  0.62369404    -0.38300
N1642       N  0.80801651  0.66827966  0.62546902    -0.39900
N1643       N  0.77197514  0.47227478  0.66260600    -0.37600
N1644       N  0.86842237  0.50820765  0.66082538    -0.40000
N1645       N  0.83829574  0.56055645  0.57626225    -0.39800
N1646       N  0.93187392  0.59631795  0.56047430    -0.37400
N1647       N  0.94349781  0.65970496  0.68690460    -0.38500
N1648       N  0.85313211  0.61734831  0.70291874    -0.40100
C1649       C  0.22419195  0.75548228  0.62431617    -0.05100
C1650       C  0.23666090  0.76140937  0.59919580     0.09100
C1651       C  0.21466886  0.75702851  0.57778157    -0.02500
C1652       C  0.18075353  0.74502232  0.58139970    -0.00700
C1653       C  0.16851670  0.73804451  0.60661674    -0.04300
C1654       C  0.19031171  0.74422673  0.62806765     0.02700
C1655       C  0.27258129  0.77422187  0.59606633     0.09500
C1656       C  0.22711651  0.76473160  0.55207585     0.35400
C1657       C  0.17796102  0.73909019  0.65423371     0.38800
C1658       C  0.30058264  0.75128881  0.59638476    -0.04700
C1659       C  0.33447679  0.76370310  0.59930427     0.02400
C1660       C  0.34028193  0.79906235  0.60307976    -0.04300
C1661       C  0.31208663  0.82204194  0.60112598    -0.00500
C1662       C  0.27864628  0.80961247  0.59703006    -0.03100
C1663       C  0.29420799  0.71483563  0.59475475     0.36200
C1664       C  0.31696932  0.85870202  0.60371987     0.39800
C1665       C  0.36298876  0.73991693  0.59974214     0.38900
C1666       C  0.25007783  0.83324337  0.59469130     0.35800
C1667       C  0.24645275  0.76101471  0.64644203     0.36500
C1668       C  0.15925059  0.73834982  0.55907401     0.39800
N1669       N  0.38577341  0.72094242  0.59993366    -0.38300
N1670       N  0.28895184  0.68575897  0.59352538    -0.39900
N1671       N  0.32033967  0.88794289  0.60605407    -0.37600
N1672       N  0.22732563  0.85204808  0.59261294    -0.40000
N1673       N  0.23704976  0.77109396  0.53159181    -0.39800
N1674       N  0.14222009  0.73300865  0.54119140    -0.37400
N1675       N  0.16816676  0.73480134  0.67506745    -0.38500
N1676       N  0.26426729  0.76541909  0.66402623    -0.40100
C1677       C  0.06356890  0.62966856  0.74774652    -0.05100
C1678       C  0.07448731  0.59522490  0.74900531     0.09100
C1679       C  0.07089297  0.57408394  0.72709896    -0.02500
C1680       C  0.06014815  0.58811261  0.70335749    -0.00700
C1681       C  0.05204844  0.62335047  0.70146330    -0.04300
C1682       C  0.05164338  0.64349394  0.72416067     0.02700
C1683       C  0.09100488  0.58153089  0.77306724     0.09500
C1684       C  0.07896480  0.53797277  0.72896808     0.35400
C1685       C  0.04059984  0.67885668  0.72304606     0.38800
C1686       C  0.07078298  0.57223725  0.79449932    -0.04700
C1687       C  0.08657003  0.56130047  0.81758197     0.02400
C1688       C  0.12268440  0.56116971  0.81984832    -0.04300
C1689       C  0.14293709  0.56895413  0.79807401    -0.00500
C1690       C  0.12712012  0.57845464  0.77459195    -0.03100
C1691       C  0.03377626  0.57533177  0.79311337     0.36200
C1692       C  0.18001822  0.56972315  0.80041775     0.39800
C1693       C  0.06569311  0.55063733  0.83928090     0.38900
C1694       C  0.14807080  0.58644005  0.75228202     0.35800
C1695       C  0.06600459  0.65125602  0.77048760     0.36500
C1696       C  0.05789126  0.56626493  0.68072176     0.39800
N1697       N  0.04912154  0.54175355  0.85653298    -0.38300
N1698       N  0.00427408  0.57826066  0.79204998    -0.39900
N1699       N  0.20957264  0.57057191  0.80244223    -0.37600
N1700       N  0.16480179  0.59258462  0.73443912    -0.40000
N1701       N  0.08527682  0.50914983  0.73060887    -0.39800
N1702       N  0.05616323  0.54881596  0.66267717    -0.37400
N1703       N  0.03142935  0.70697595  0.72219116    -0.38500
N1704       N  0.06797789  0.66845887  0.78865092    -0.40100
C1705       C  0.13874903  0.59362144  0.53047660    -0.05100
C1706       C  0.17420188  0.59097484  0.53617954     0.09100
C1707       C  0.18629168  0.60234215  0.56044035    -0.02500
C1708       C  0.16355863  0.61707752  0.57844753    -0.00700
C1709       C  0.12831025  0.62107561  0.57237528    -0.04300
C1710       C  0.11603865  0.60931156  0.54824877     0.02700
C1711       C  0.19945149  0.57941615  0.51592904     0.09500
C1712       C  0.22257552  0.60026076  0.56660378     0.35400
C1713       C  0.08022632  0.61390179  0.54148772     0.38800
C1714       C  0.20565810  0.60014989  0.49416917    -0.04700
C1715       C  0.23056600  0.59061939  0.47571957     0.02400
C1716       C  0.25141460  0.56130031  0.47957354    -0.04300
C1717       C  0.24523362  0.54063707  0.50153800    -0.00500
C1718       C  0.21880760  0.54915641  0.51917290    -0.03100
C1719       C  0.18659644  0.63178247  0.49086615     0.36200
C1720       C  0.26698540  0.51138023  0.50676688     0.39800
C1721       C  0.23302036  0.61050901  0.45223328     0.38900
C1722       C  0.21175395  0.52697500  0.54093550     0.35800
C1723       C  0.12580974  0.58085899  0.50601391     0.36500
C1724       C  0.17736845  0.63055531  0.60248378     0.39800
N1725       N  0.23325053  0.62700220  0.43373153    -0.38300
N1726       N  0.17126217  0.65687016  0.48819168    -0.39900
N1727       N  0.28445104  0.48815775  0.51109045    -0.37600
N1728       N  0.20612902  0.50943962  0.55838757    -0.40000
N1729       N  0.25140182  0.59844481  0.57176975    -0.39800
N1730       N  0.18873967  0.64128005  0.62150630    -0.37400
N1731       N  0.05171280  0.61777844  0.53598188    -0.38500
N1732       N  0.11559007  0.57083189  0.48641581    -0.40100
C1733       C  0.04594529  0.82586460  0.52326323    -0.05100
C1734       C  0.06394761  0.81779546  0.50042935     0.09100
C1735       C  0.06963803  0.78313942  0.49390945    -0.02500
C1736       C  0.05879700  0.75683801  0.51066567    -0.00700
C1737       C  0.04264957  0.76497948  0.53430678    -0.04300
C1738       C  0.03586054  0.79962166  0.54034629     0.02700
C1739       C  0.08067333  0.84553645  0.48486864     0.09500
C1740       C  0.08754184  0.77457864  0.47022946     0.35400
C1741       C  0.02119885  0.80850835  0.56516001     0.38800
C1742       C  0.11508831  0.85415350  0.48991969    -0.04700
C1743       C  0.13260959  0.87743042  0.47387589     0.02400
C1744       C  0.11577383  0.89267464  0.45232200    -0.04300
C1745       C  0.08058807  0.88511266  0.44816731    -0.00500
C1746       C  0.06311065  0.86195839  0.46457334    -0.03100
C1747       C  0.13282811  0.83816756  0.51143489     0.36200
C1748       C  0.06222568  0.90090569  0.42698424     0.39800
C1749       C  0.16883993  0.88322554  0.47876760     0.38900
C1750       C  0.02700976  0.85479700  0.46063019     0.35800
C1751       C  0.03880980  0.86130311  0.52955695     0.36500
C1752       C  0.06446817  0.72134214  0.50365693     0.39800
N1753       N  0.19771874  0.88737038  0.48291895    -0.38300
N1754       N  0.14690052  0.82541760  0.52858172    -0.39900
N1755       N  0.04743017  0.91331801  0.41004536    -0.37600
N1756       N  0.99811076  0.84916776  0.45779644    -0.40000
N1757       N  0.10182986  0.76757628  0.45136424    -0.39800
N1758       N  0.06889727  0.69301641  0.49805524    -0.37400
N1759       N  0.01003750  0.81556337  0.58515546    -0.38500
N1760       N  0.03287147  0.88956066  0.53450826    -0.40100
loop_ 
_geom_bond_atom_site_label_1 
_geom_bond_atom_site_label_2 
_geom_bond_distance 
_geom_bond_site_symmetry_2 
_ccdc_geom_bond_type 
O1           Ni7   1.922       .  S
O1           C22   1.270       .  A
O2          Ni25   1.901       .  S
O2           C11   1.266       .  A
O3           Ni7   1.892       .  S
O3          Ni25   1.894       .  S
O3          Ni19   1.896       .  S
O3           H26   0.966       .  S
C4           O21   1.272       .  A
C4           O13   1.278       .  A
C4         C1625   1.503       .  S
O5          Ni24   1.947   1_455  S
O5           C11   1.275       .  A
O6          Ni24   1.900       .  S
O6            C8   1.269       .  A
Ni7          O10   1.921       .  S
Ni7          O12   1.903       .  S
C8           O18   1.281   1_655  A
C8         C1597   1.489       .  S
O9          Ni25   1.928       .  S
O9           C15   1.283       .  A
O10          C15   1.279       .  A
C11        C1737   1.490       .  S
O12          C14   1.265       .  A
O13         Ni24   1.936       .  S
C14          O20   1.269       .  A
C14        C1709   1.490       .  S
C15        C1653   1.492       .  S
H16          O17   0.966       .  S
O17         Ni25   1.927       .  S
O17         Ni19   1.921       .  S
O17         Ni24   1.912   1_455  S
O18         Ni19   1.954       .  S
Ni19         O23   1.926       .  S
Ni19         O21   1.916   1_455  S
O20         Ni25   1.931       .  S
C22          O23   1.274       .  A
C22        C1681   1.492       .  S
O27         Ni33   1.925       .  S
O27          C48   1.271       .  A
O28         Ni51   1.882       .  S
O28          C37   1.258       .  A
O29         Ni33   1.900       .  S
O29         Ni51   1.885       .  S
O29         Ni45   1.898       .  S
O29          H52   0.966       .  S
C30          O47   1.274       .  A
C30          O39   1.277       .  A
C30        C1457   1.501       .  S
O31         Ni50   1.946       .  S
O31          C37   1.273       .  A
O32         Ni50   1.889       .  S
O32          C34   1.268       .  A
Ni33         O36   1.935       .  S
Ni33         O38   1.912       .  S
C34          O44   1.281       .  A
C34        C1492   1.485       .  S
O35         Ni51   1.912       .  S
O35          C41   1.276       .  A
O36          C41   1.280       .  A
C37        C1576   1.512       .  S
O38          C40   1.266       .  A
O39         Ni50   1.930       .  S
C40          O46   1.266       .  A
C40        C1541   1.507       .  S
C41        C1513   1.486       .  S
H42          O43   0.966       .  S
O43         Ni51   1.919       .  S
O43         Ni45   1.918       .  S
O43         Ni50   1.910       .  S
O44         Ni45   1.950       .  S
Ni45         O49   1.923       .  S
Ni45         O47   1.920       .  S
O46         Ni51   1.918       .  S
C48          O49   1.275       .  A
C48        C1688   1.483       .  S
O53         Ni59   1.923       .  S
O53          C74   1.271       .  A
O54         Ni77   1.905       .  S
O54          C63   1.267       .  A
O55         Ni59   1.896       .  S
O55         Ni77   1.886       .  S
O55         Ni71   1.899       .  S
O55          H78   0.974       .  S
C56          O73   1.272       .  A
C56          O65   1.278       .  A
C56        C1324   1.518       .  S
O57         Ni76   1.943       .  S
O57          C63   1.276       .  A
O58         Ni76   1.894       .  S
O58          C60   1.269       .  A
Ni59         O62   1.919       .  S
Ni59         O64   1.916       .  S
C60          O70   1.281       .  A
C60        C1345   1.486       .  S
O61         Ni77   1.935       .  S
O61          C67   1.285       .  A
O62          C67   1.279       .  A
C63        C1429   1.505       .  S
O64          C66   1.269       .  A
O65         Ni76   1.943       .  S
C66          O72   1.269       .  A
C66        C1408   1.493       .  S
C67        C1660   1.495       .  S
H68          O69   0.965       .  S
O69         Ni77   1.939       .  S
O69         Ni71   1.922       .  S
O69         Ni76   1.913       .  S
O70         Ni71   1.951       .  S
Ni71         O75   1.921       .  S
Ni71         O73   1.922       .  S
O72         Ni77   1.920       .  S
C74          O75   1.272       .  A
C74        C1380   1.485       .  S
O79         Ni85   1.921       .  S
O79         C100   1.269       .  A
O80        Ni103   1.908       .  S
O80          C89   1.269       .  A
O81         Ni85   1.890       .  S
O81        Ni103   1.889       .  S
O81         Ni97   1.901   1_565  S
O81         H104   0.967       .  S
C82          O99   1.274       .  A
C82          O91   1.280       .  A
C82        C1233   1.496       .  S
O83        Ni102   1.940       .  S
O83          C89   1.274   1_545  A
O84        Ni102   1.896       .  S
O84          C86   1.269       .  A
Ni85         O88   1.922       .  S
Ni85         O90   1.908       .  S
C86          O96   1.281       .  A
C86        C1205   1.496       .  S
O87        Ni103   1.922       .  S
O87          C93   1.282       .  A
O88          C93   1.280       .  A
C89        C1261   1.487       .  S
O90          C92   1.266       .  A
O91        Ni102   1.935       .  S
C92          O98   1.273       .  A
C92        C1289   1.512       .  S
C93        C1520   1.479       .  S
H94          O95   0.966       .  S
O95        Ni103   1.925       .  S
O95         Ni97   1.912   1_565  S
O95        Ni102   1.900   1_565  S
O96         Ni97   1.955       .  S
Ni97        O101   1.922   1_545  S
Ni97         O99   1.919       .  S
O98        Ni103   1.935       .  S
C100        O101   1.273       .  A
C100       C1373   1.481       .  S
O105       Ni111   1.930       .  S
O105        C126   1.271       .  A
O106       Ni129   1.903       .  S
O106        C115   1.265       .  A
O107       Ni111   1.894       .  S
O107       Ni129   1.892       .  S
O107       Ni123   1.890       .  S
O107        H130   0.968       .  S
C108        O125   1.269       .  A
C108        O117   1.279       .  A
C108       C1352   1.491       .  S
O109       Ni128   1.948       .  S
O109        C115   1.274       .  A
O110       Ni128   1.899       .  S
O110        C112   1.270       .  A
Ni111       O114   1.928       .  S
Ni111       O116   1.910       .  S
C112        O122   1.280       .  A
C112       C1632   1.494       .  S
O113       Ni129   1.911       .  S
O113        C119   1.278       .  A
O114        C119   1.280       .  A
C115       C1149   1.485       .  S
O116        C118   1.266       .  A
O117       Ni128   1.939       .  S
C118        O124   1.270       .  A
C118       C1177   1.507       .  S
C119       C1093   1.473       .  S
H120        O121   0.966       .  S
O121       Ni129   1.921       .  S
O121       Ni123   1.918       .  S
O121       Ni128   1.910       .  S
O122       Ni123   1.949       .  S
Ni123       O127   1.916       .  S
Ni123       O125   1.905       .  S
O124       Ni129   1.925       .  S
C126        O127   1.271       .  A
C126       C1121   1.481       .  S
O131       Ni137   1.931       .  S
O131        C152   1.275       .  A
O132       Ni155   1.903       .  S
O132        C141   1.267       .  A
O133       Ni137   1.895       .  S
O133       Ni155   1.887       .  S
O133       Ni149   1.896       .  S
O133        H156   0.967       .  S
C134        O151   1.270       .  A
C134        O143   1.274       .  A
C134       C1485   1.497       .  S
O135       Ni154   1.931       .  S
O135        C141   1.272       .  A
O136       Ni154   1.899       .  S
O136        C138   1.272       .  A
Ni137       O140   1.917       .  S
Ni137       O142   1.924       .  S
C138        O148   1.281       .  A
C138       C1240   1.491       .  S
O139       Ni155   1.939       .  S
O139        C145   1.286       .  A
O140        C145   1.278       .  A
C141       C1037   1.493       .  S
O142        C144   1.272       .  A
O143       Ni154   1.930       .  S
C144        O150   1.265       .  A
C144       C1009   1.494       .  S
C145       C1072   1.496       .  S
H146        O147   0.966       .  S
O147       Ni155   1.937       .  S
O147       Ni149   1.919       .  S
O147       Ni154   1.910       .  S
O148       Ni149   1.948       .  S
Ni149       O153   1.915       .  S
Ni149       O151   1.916       .  S
O150       Ni155   1.907       .  S
C152        O153   1.272       .  A
C152       C1128   1.489       .  S
O157       Ni163   1.930       .  S
O157        C178   1.276       .  A
O158       Ni181   1.899       .  S
O158        C167   1.266       .  A
O159       Ni163   1.902       .  S
O159       Ni181   1.881       .  S
O159       Ni175   1.902       .  S
O159        H182   0.968       .  S
C160        O177   1.272       .  A
C160        O169   1.276       .  A
C160       C1604   1.506       .  S
O161       Ni180   1.936   1_545  S
O161        C167   1.272       .  A
O162       Ni180   1.887       .  S
O162        C164   1.267       .  A
Ni163       O166   1.927       .  S
Ni163       O168   1.926       .  S
C164        O174   1.289   1_565  A
C164       C1317   1.493       .  S
O165       Ni181   1.927       .  S
O165        C171   1.283       .  A
O166        C171   1.279       .  A
C167        C988   1.490       .  S
O168        C170   1.272       .  A
O169       Ni180   1.928       .  S
C170        O176   1.267       .  A
C170        C953   1.510       .  S
C171       C1100   1.485       .  S
H172        O173   0.966       .  S
O173       Ni181   1.930       .  S
O173       Ni175   1.918       .  S
O173       Ni180   1.908   1_545  S
O174       Ni175   1.974       .  S
Ni175       O179   1.926       .  S
Ni175       O177   1.920   1_545  S
O176       Ni181   1.920       .  S
C178        O179   1.278       .  A
C178        C925   1.501       .  S
O183       Ni189   1.916       .  S
O183        C204   1.266       .  A
O184       Ni207   1.911       .  S
O184        C193   1.266       .  A
O185       Ni189   1.896       .  S
O185       Ni207   1.898       .  S
O185       Ni201   1.901       .  S
O185        H208   0.966       .  S
C186        O203   1.275       .  A
C186        O195   1.277       .  A
C186       C1212   1.508       .  S
O187       Ni206   1.939       .  S
O187        C193   1.273   1_455  A
O188       Ni206   1.898       .  S
O188        C190   1.269       .  A
Ni189       O192   1.923       .  S
Ni189       O194   1.896       .  S
C190        O200   1.280       .  A
C190       C1464   1.490       .  S
O191       Ni207   1.919       .  S
O191        C197   1.279       .  A
O192        C197   1.278       .  A
C193        C869   1.489       .  S
O194        C196   1.262       .  A
O195       Ni206   1.932       .  S
C196        O202   1.272       .  A
C196        C897   1.501       .  S
C197       C1065   1.486       .  S
H198        O199   0.966       .  S
O199       Ni207   1.926       .  S
O199       Ni201   1.922       .  S
O199       Ni206   1.914   1_655  S
O200       Ni201   1.954   1_455  S
Ni201       O205   1.930       .  S
Ni201       O203   1.921   1_655  S
O202       Ni207   1.929       .  S
C204        O205   1.274       .  A
C204        C932   1.485       .  S
O209       Ni215   1.936       .  S
O209        C230   1.272       .  A
O210       Ni233   1.923       .  S
O210        C219   1.274       .  A
O211       Ni215   1.905       .  S
O211       Ni233   1.914       .  S
O211       Ni227   1.918       .  S
O211        H234   0.966       .  S
C212        O229   1.281       .  A
C212        O221   1.280       .  A
C212        C820   1.484       .  S
O213       Ni232   1.930       .  S
O213        C219   1.273       .  A
O214       Ni232   1.919       .  S
O214        C216   1.271       .  A
Ni215       O218   1.921       .  S
Ni215       O220   1.892       .  S
C216        O226   1.267       .  A
C216        C876   1.499       .  S
O217       Ni233   1.915       .  S
O217        C223   1.274       .  A
O218        C223   1.277       .  A
C219        C841   1.491       .  S
O220        C222   1.268       .  A
O221       Ni232   1.922       .  S
C222        O228   1.281       .  A
C222        C785   1.487       .  S
C223        C757   1.492       .  S
H224        O225   0.966       .  S
O225       Ni233   1.901       .  S
O225       Ni227   1.888       .  S
O225       Ni232   1.899       .  S
O226       Ni227   1.917       .  S
Ni227       O231   1.898       .  S
Ni227       O229   1.923       .  S
O228       Ni233   1.956       .  S
C230        O231   1.263       .  A
C230       C1016   1.480       .  S
O235       Ni241   1.956       .  S
O235        C256   1.277   1_455  A
O236       Ni259   1.928       .  S
O236        C245   1.277       .  A
O237       Ni241   1.910   1_655  S
O237       Ni259   1.918       .  S
O237       Ni253   1.925       .  S
O237        H260   0.966       .  S
C238        O255   1.282       .  A
C238        O247   1.278       .  A
C238        C736   1.483       .  S
O239       Ni258   1.923       .  S
O239        C245   1.270       .  A
O240       Ni258   1.915       .  S
O240        C242   1.269       .  A
Ni241       O244   1.944       .  S
Ni241       O246   1.891       .  S
C242        O252   1.266       .  A
C242       C1156   1.494       .  S
O243       Ni259   1.911   1_455  S
O243        C249   1.272       .  A
O244        C249   1.280       .  A
C245        C848   1.495       .  S
O246        C248   1.268       .  A
O247       Ni258   1.914       .  S
C248        O254   1.286       .  A
C248        C673   1.493       .  S
C249        C701   1.505       .  S
H250        O251   0.966       .  S
O251       Ni259   1.900       .  S
O251       Ni253   1.887       .  S
O251       Ni258   1.899       .  S
O252       Ni253   1.916       .  S
Ni253       O257   1.895       .  S
Ni253       O255   1.929       .  S
O254       Ni259   1.967   1_455  S
C256        O257   1.262       .  A
C256        C960   1.491       .  S
O261       Ni267   1.926       .  S
O261        C282   1.272       .  A
O262       Ni285   1.916       .  S
O262        C271   1.271       .  A
O263       Ni267   1.907       .  S
O263       Ni285   1.920       .  S
O263       Ni279   1.936       .  S
O263        H286   0.966       .  S
C264        O281   1.281       .  A
C264        O273   1.278       .  A
C264        C813   1.477       .  S
O265       Ni284   1.915       .  S
O265        C271   1.267       .  A
O266       Ni284   1.906       .  S
O266        C268   1.264       .  A
Ni267       O270   1.926   1_545  S
Ni267       O272   1.900   1_545  S
C268        O278   1.268       .  A
C268       C1044   1.499       .  S
O269       Ni285   1.921   1_565  S
O269        C275   1.272       .  A
O270        C275   1.275       .  A
C271        C645   1.472       .  S
O272        C274   1.271       .  A
O273       Ni284   1.926       .  S
C274        O280   1.280   1_565  A
C274        C589   1.489       .  S
C275        C624   1.501       .  S
H276        O277   0.967       .  S
O277       Ni285   1.898       .  S
O277       Ni279   1.889       .  S
O277       Ni284   1.892       .  S
O278       Ni279   1.923       .  S
Ni279       O283   1.904       .  S
Ni279       O281   1.921       .  S
O280       Ni285   1.947       .  S
C282        O283   1.267       .  A
C282        C904   1.498       .  S
O287       Ni293   1.937       .  S
O287        C308   1.275       .  A
O288       Ni311   1.919       .  S
O288        C297   1.272       .  A
O289       Ni293   1.910       .  S
O289       Ni311   1.915       .  S
O289       Ni305   1.930       .  S
O289        H312   0.966       .  S
C290        O307   1.283       .  A
C290        O299   1.279       .  A
C290        C729   1.489       .  S
O291       Ni310   1.915       .  S
O291        C297   1.268       .  A
O292       Ni310   1.899       .  S
O292        C294   1.265       .  A
Ni293       O296   1.937       .  S
Ni293       O298   1.900       .  S
C294        O304   1.272       .  A
C294        C981   1.487       .  S
O295       Ni311   1.916       .  S
O295        C301   1.271       .  A
O296        C301   1.278       .  A
C297        C652   1.489       .  S
O298        C300   1.269       .  A
O299       Ni310   1.914       .  S
C300        O306   1.283       .  A
C300        C561   1.494       .  S
C301        C533   1.510       .  S
H302        O303   0.967       .  S
O303       Ni311   1.904       .  S
O303       Ni305   1.888       .  S
O303       Ni310   1.891       .  S
O304       Ni305   1.928       .  S
Ni305       O309   1.902       .  S
Ni305       O307   1.930       .  S
O306       Ni311   1.964       .  S
C308        O309   1.267       .  A
C308       C1184   1.493       .  S
O313       Ni319   1.924       .  S
O313        C334   1.270       .  A
O314       Ni337   1.926       .  S
O314        C323   1.274       .  A
O315       Ni319   1.919       .  S
O315       Ni337   1.927       .  S
O315       Ni331   1.941       .  S
O315        H338   0.966       .  S
C316        O333   1.282       .  A
C316        O325   1.278       .  A
C316        C477   1.484       .  S
O317       Ni336   1.926       .  S
O317        C323   1.270       .  A
O318       Ni336   1.903       .  S
O318        C320   1.266       .  A
Ni319       O322   1.926       .  S
Ni319       O324   1.894       .  S
C320        O330   1.270       .  A
C320       C1569   1.494       .  S
O321       Ni337   1.909       .  S
O321        C327   1.267       .  A
O322        C327   1.272       .  A
C323        C505   1.488       .  S
O324        C326   1.270       .  A
O325       Ni336   1.924       .  S
C326        O332   1.285       .  A
C326        C617   1.494       .  S
C327        C792   1.500       .  S
H328        O329   0.965       .  S
O329       Ni337   1.892       .  S
O329       Ni331   1.894       .  S
O329       Ni336   1.897       .  S
O330       Ni331   1.924       .  S
Ni331       O335   1.913       .  S
Ni331       O333   1.926       .  S
O332       Ni337   1.962       .  S
C334        O335   1.269       .  A
C334       C1296   1.498       .  S
O339       Ni345   1.949       .  S
O339        C360   1.276       .  A
O340       Ni363   1.930       .  S
O340        C349   1.276       .  A
O341       Ni345   1.913       .  S
O341       Ni363   1.927       .  S
O341       Ni357   1.935       .  S
O341        H364   0.966       .  S
C342        O359   1.279       .  A
C342        O351   1.279       .  A
C342        C449   1.482       .  S
O343       Ni362   1.926       .  S
O343        C349   1.270       .  A
O344       Ni362   1.910       .  S
O344        C346   1.266       .  A
Ni345       O348   1.937       .  S
Ni345       O350   1.886       .  S
C346        O356   1.268       .  A
C346       C1436   1.509       .  S
O347       Ni363   1.923       .  S
O347        C353   1.273       .  A
O348        C353   1.278       .  A
C349        C512   1.492       .  S
O350        C352   1.267       .  A
O351       Ni362   1.932       .  S
C352        O358   1.283       .  A
C352        C708   1.480       .  S
C353        C568   1.518       .  S
H354        O355   0.967       .  S
O355       Ni363   1.900       .  S
O355       Ni357   1.892       .  S
O355       Ni362   1.901       .  S
O356       Ni357   1.924       .  S
Ni357       O361   1.906       .  S
Ni357       O359   1.915       .  S
O358       Ni363   1.956       .  S
C360        O361   1.267       .  A
C360       C1716   1.502       .  S
O365       Ni371   1.935   1_455  S
O365        C386   1.272       .  A
O366       Ni389   1.921       .  S
O366        C375   1.275       .  A
O367       Ni371   1.904   1_455  S
O367       Ni389   1.915       .  S
O367       Ni383   1.928       .  S
O367        H390   0.966       .  S
C368        O385   1.285       .  A
C368        O377   1.278       .  A
C368        C484   1.487       .  S
O369       Ni388   1.921       .  S
O369        C375   1.270       .  A
O370       Ni388   1.920       .  S
O370        C372   1.271       .  A
Ni371       O374   1.930       .  S
Ni371       O376   1.886       .  S
C372        O382   1.263       .  A
C372       C1268   1.491       .  S
O373       Ni389   1.907   1_655  S
O373        C379   1.270       .  A
O374        C379   1.276       .  A
C375        C421   1.493       .  S
O376        C378   1.268       .  A
O377       Ni388   1.911       .  S
C378        O384   1.283   1_655  A
C378        C764   1.484       .  S
C379        C596   1.488       .  S
H380        O381   0.966       .  S
O381       Ni389   1.899       .  S
O381       Ni383   1.884       .  S
O381       Ni388   1.896       .  S
O382       Ni383   1.904       .  S
Ni383       O387   1.898       .  S
Ni383       O385   1.934       .  S
O384       Ni389   1.956       .  S
C386        O387   1.263       .  A
C386       C1548   1.479       .  S
O391       Ni397   1.933       .  S
O391        C412   1.271   1_545  A
O392       Ni415   1.921       .  S
O392        C401   1.276       .  A
O393       Ni397   1.903   1_565  S
O393       Ni415   1.913       .  S
O393       Ni409   1.923       .  S
O393        H416   0.967       .  S
C394        O411   1.281       .  A
C394        O403   1.280       .  A
C394        C456   1.489       .  S
O395       Ni414   1.935       .  S
O395        C401   1.276       .  A
O396       Ni414   1.923       .  S
O396        C398   1.272       .  A
Ni397       O400   1.924       .  S
Ni397       O402   1.891       .  S
C398        O408   1.270       .  A
C398       C1744   1.507       .  S
O399       Ni415   1.933   1_545  S
O399        C405   1.277       .  A
O400        C405   1.277       .  A
C401        C428   1.493       .  S
O402        C404   1.268       .  A
O403       Ni414   1.924       .  S
C404        O410   1.283       .  A
C404        C540   1.495       .  S
C405        C680   1.507       .  S
H406        O407   0.966       .  S
O407       Ni415   1.904       .  S
O407       Ni409   1.889       .  S
O407       Ni414   1.896       .  S
O408       Ni409   1.924       .  S
Ni409       O413   1.902       .  S
Ni409       O411   1.927       .  S
O410       Ni415   1.961   1_545  S
C412        O413   1.265       .  A
C412       C1401   1.482       .  S
C417        C418   1.414       .  A
C417        C422   1.413       .  A
C417        C435   1.450       .  S
C418        C423   1.507       .  S
C418        C419   1.412       .  A
C419        C420   1.414       .  A
C419        C424   1.451       .  S
C420        C421   1.418       .  A
C420        C436   1.451       .  S
C421        C422   1.414       .  A
C422        C425   1.451       .  S
C423        C426   1.415       .  A
C423        C430   1.411       .  A
C424        N441   1.157   1_565  T
C425        N443   1.157       .  T
C426        C427   1.415       .  A
C426        C431   1.451       .  S
C427        C428   1.414       .  A
C427        C433   1.450       .  S
C428        C429   1.416       .  A
C429        C430   1.414       .  A
C429        C432   1.450       .  S
C430        C434   1.450       .  S
C431        N438   1.157       .  T
C432        N439   1.157       .  T
C433        N437   1.157       .  T
C434        N440   1.157       .  T
C435        N444   1.157       .  T
C436        N442   1.157       .  T
C445        C446   1.413       .  A
C445        C450   1.409       .  A
C445        C463   1.451       .  S
C446        C451   1.495       .  S
C446        C447   1.408       .  A
C447        C448   1.412       .  A
C447        C452   1.451       .  S
C448        C449   1.415       .  A
C448        C464   1.448       .  S
C449        C450   1.411       .  A
C450        C453   1.451       .  S
C451        C454   1.407       .  A
C451        C458   1.412       .  A
C452        N469   1.157       .  T
C453        N471   1.157       .  T
C454        C455   1.405       .  A
C454        C459   1.453       .  S
C455        C456   1.418       .  A
C455        C461   1.451       .  S
C456        C457   1.415       .  A
C457        C458   1.416       .  A
C457        C460   1.450       .  S
C458        C462   1.449       .  S
C459        N466   1.157       .  T
C460        N467   1.158       .  T
C461        N465   1.157       .  T
C462        N468   1.157       .  T
C463        N472   1.157       .  T
C464        N470   1.156       .  T
C473        C474   1.409       .  A
C473        C478   1.412       .  A
C473        C491   1.450       .  S
C474        C479   1.495       .  S
C474        C475   1.412       .  A
C475        C476   1.408       .  A
C475        C480   1.452       .  S
C476        C477   1.414       .  A
C476        C492   1.451       .  S
C477        C478   1.414       .  A
C478        C481   1.447       .  S
C479        C482   1.414       .  A
C479        C486   1.405       .  A
C480        N497   1.157       .  T
C481        N499   1.156       .  T
C482        C483   1.415       .  A
C482        C487   1.450       .  S
C483        C484   1.413       .  A
C483        C489   1.450       .  S
C484        C485   1.422       .  A
C485        C486   1.404       .  A
C485        C488   1.453       .  S
C486        C490   1.453       .  S
C487        N494   1.157       .  T
C488        N495   1.157       .  T
C489        N493   1.157       .  T
C490        N496   1.157       .  T
C491        N500   1.157       .  T
C492        N498   1.157       .  T
C501        C502   1.410       .  A
C501        C506   1.414       .  A
C501        C519   1.450       .  S
C502        C507   1.505       .  S
C502        C503   1.415       .  A
C503        C504   1.415       .  A
C503        C508   1.449       .  S
C504        C505   1.411       .  A
C504        C520   1.450       .  S
C505        C506   1.416       .  A
C506        C509   1.451       .  S
C507        C510   1.410       .  A
C507        C514   1.414       .  A
C508        N525   1.157       .  T
C509        N527   1.157       .  T
C510        C511   1.415       .  A
C510        C515   1.449       .  S
C511        C512   1.417       .  A
C511        C517   1.450       .  S
C512        C513   1.412       .  A
C513        C514   1.415       .  A
C513        C516   1.450       .  S
C514        C518   1.450       .  S
C515        N522   1.157       .  T
C516        N523   1.157       .  T
C517        N521   1.157       .  T
C518        N524   1.157       .  T
C519        N528   1.157       .  T
C520        N526   1.157       .  T
C529        C530   1.412       .  A
C529        C534   1.414       .  A
C529        C547   1.450       .  S
C530        C535   1.507       .  S
C530        C531   1.409       .  A
C531        C532   1.418       .  A
C531        C536   1.451       .  S
C532        C533   1.425       .  A
C532        C548   1.451       .  S
C533        C534   1.420       .  A
C534        C537   1.451       .  S
C535        C538   1.410       .  A
C535        C542   1.414       .  A
C536        N553   1.157       .  T
C537        N555   1.157       .  T
C538        C539   1.411       .  A
C538        C543   1.451       .  S
C539        C540   1.418       .  A
C539        C545   1.452       .  S
C540        C541   1.414       .  A
C541        C542   1.420       .  A
C541        C544   1.449   1_545  S
C542        C546   1.449       .  S
C543        N550   1.157       .  T
C544        N551   1.157       .  T
C545        N549   1.157       .  T
C546        N552   1.157       .  T
C547        N556   1.157       .  T
C548        N554   1.157       .  T
C557        C558   1.415       .  A
C557        C562   1.419       .  A
C557        C575   1.449       .  S
C558        C563   1.513       .  S
C558        C559   1.412       .  A
C559        C560   1.416       .  A
C559        C564   1.449       .  S
C560        C561   1.414       .  A
C560        C576   1.451       .  S
C561        C562   1.414       .  A
C562        C565   1.450       .  S
C563        C566   1.410       .  A
C563        C570   1.411       .  A
C564        N581   1.157       .  T
C565        N583   1.157       .  T
C566        C567   1.421       .  A
C566        C571   1.450       .  S
C567        C568   1.428       .  A
C567        C573   1.451       .  S
C568        C569   1.422       .  A
C569        C570   1.416       .  A
C569        C572   1.451       .  S
C570        C574   1.450       .  S
C571        N578   1.157       .  T
C572        N579   1.157       .  T
C573        N577   1.158       .  T
C574        N580   1.157       .  T
C575        N584   1.157       .  T
C576        N582   1.157       .  T
C585        C586   1.414       .  A
C585        C590   1.416   1_565  A
C585        C603   1.450   1_565  S
C586        C591   1.502       .  S
C586        C587   1.411       .  A
C587        C588   1.409       .  A
C587        C592   1.452       .  S
C588        C589   1.416       .  A
C588        C604   1.453       .  S
C589        C590   1.414   1_565  A
C590        C593   1.450       .  S
C591        C594   1.412       .  A
C591        C598   1.413       .  A
C592        N609   1.157       .  T
C593        N611   1.157       .  T
C594        C595   1.413       .  A
C594        C599   1.450       .  S
C595        C596   1.418       .  A
C595        C601   1.452       .  S
C596        C597   1.411       .  A
C597        C598   1.410       .  A
C597        C600   1.451       .  S
C598        C602   1.447       .  S
C599        N606   1.157       .  T
C600        N607   1.157       .  T
C601        N605   1.158       .  T
C602        N608   1.156       .  T
C603        N612   1.157       .  T
C604        N610   1.157       .  T
C613        C614   1.413       .  A
C613        C618   1.418       .  A
C613        C631   1.449       .  S
C614        C619   1.508       .  S
C614        C615   1.412       .  A
C615        C616   1.412       .  A
C615        C620   1.451       .  S
C616        C617   1.418       .  A
C616        C632   1.453       .  S
C617        C618   1.415       .  A
C618        C621   1.449       .  S
C619        C622   1.411       .  A
C619        C626   1.413       .  A
C620        N637   1.157       .  T
C621        N639   1.157       .  T
C622        C623   1.417       .  A
C622        C627   1.450       .  S
C623        C624   1.421       .  A
C623        C629   1.451       .  S
C624        C625   1.416       .  A
C625        C626   1.413       .  A
C625        C628   1.451       .  S
C626        C630   1.449       .  S
C627        N634   1.157       .  T
C628        N635   1.157       .  T
C629        N633   1.158       .  T
C630        N636   1.156       .  T
C631        N640   1.157       .  T
C632        N638   1.158       .  T
C641        C642   1.412       .  A
C641        C646   1.408       .  A
C641        C659   1.451       .  S
C642        C647   1.493       .  S
C642        C643   1.411       .  A
C643        C644   1.411       .  A
C643        C648   1.449       .  S
C644        C645   1.410       .  A
C644        C660   1.450       .  S
C645        C646   1.411       .  A
C646        C649   1.452       .  S
C647        C650   1.413       .  A
C647        C654   1.406       .  A
C648        N665   1.157       .  T
C649        N667   1.157       .  T
C650        C651   1.413       .  A
C650        C655   1.450       .  S
C651        C652   1.412       .  A
C651        C657   1.449       .  S
C652        C653   1.419       .  A
C653        C654   1.407       .  A
C653        C656   1.452       .  S
C654        C658   1.451       .  S
C655        N662   1.157       .  T
C656        N663   1.157       .  T
C657        N661   1.157       .  T
C658        N664   1.157       .  T
C659        N668   1.157       .  T
C660        N666   1.157       .  T
C669        C670   1.412       .  A
C669        C674   1.414       .  A
C669        C687   1.451       .  S
C670        C675   1.510       .  S
C670        C671   1.414       .  A
C671        C672   1.419       .  A
C671        C676   1.448       .  S
C672        C673   1.412       .  A
C672        C688   1.449   1_455  S
C673        C674   1.417       .  A
C674        C677   1.452       .  S
C675        C678   1.412       .  A
C675        C682   1.412       .  A
C676        N693   1.157       .  T
C677        N695   1.158       .  T
C678        C679   1.413       .  A
C678        C683   1.450       .  S
C679        C680   1.419       .  A
C679        C685   1.452       .  S
C680        C681   1.422       .  A
C681        C682   1.420       .  A
C681        C684   1.451       .  S
C682        C686   1.449       .  S
C683        N690   1.157       .  T
C684        N691   1.158       .  T
C685        N689   1.157       .  T
C686        N692   1.157       .  T
C687        N696   1.157       .  T
C688        N694   1.157       .  T
C697        C698   1.414       .  A
C697        C702   1.414       .  A
C697        C715   1.452       .  S
C698        C703   1.507       .  S
C698        C699   1.410       .  A
C699        C700   1.416       .  A
C699        C704   1.451       .  S
C700        C701   1.424       .  A
C700        C716   1.452       .  S
C701        C702   1.417       .  A
C702        C705   1.451       .  S
C703        C706   1.414       .  A
C703        C710   1.415       .  A
C704        N721   1.157       .  T
C705        N723   1.157       .  T
C706        C707   1.413       .  A
C706        C711   1.451       .  S
C707        C708   1.413       .  A
C707        C713   1.451       .  S
C708        C709   1.412       .  A
C709        C710   1.414       .  A
C709        C712   1.451       .  S
C710        C714   1.450       .  S
C711        N718   1.157       .  T
C712        N719   1.157       .  T
C713        N717   1.157       .  T
C714        N720   1.157       .  T
C715        N724   1.157       .  T
C716        N722   1.158       .  T
C725        C726   1.411       .  A
C725        C730   1.407       .  A
C725        C743   1.452       .  S
C726        C731   1.492       .  S
C726        C727   1.407       .  A
C727        C728   1.413       .  A
C727        C732   1.450       .  S
C728        C729   1.420       .  A
C728        C744   1.448       .  S
C729        C730   1.415       .  A
C730        C733   1.452       .  S
C731        C734   1.405       .  A
C731        C738   1.412       .  A
C732        N749   1.157       .  T
C733        N751   1.157       .  T
C734        C735   1.403       .  A
C734        C739   1.453       .  S
C735        C736   1.419       .  A
C735        C741   1.452       .  S
C736        C737   1.412       .  A
C737        C738   1.415       .  A
C737        C740   1.450       .  S
C738        C742   1.448       .  S
C739        N746   1.157       .  T
C740        N747   1.157       .  T
C741        N745   1.157       .  T
C742        N748   1.157       .  T
C743        N752   1.157       .  T
C744        N750   1.156       .  T
C753        C754   1.411       .  A
C753        C758   1.409       .  A
C753        C771   1.450       .  S
C754        C759   1.496       .  S
C754        C755   1.409       .  A
C755        C756   1.412       .  A
C755        C760   1.451       .  S
C756        C757   1.420       .  A
C756        C772   1.451       .  S
C757        C758   1.416       .  A
C758        C761   1.453       .  S
C759        C762   1.408       .  A
C759        C766   1.412       .  A
C760        N777   1.157       .  T
C761        N779   1.157       .  T
C762        C763   1.407       .  A
C762        C767   1.452       .  S
C763        C764   1.417       .  A
C763        C769   1.452       .  S
C764        C765   1.413       .  A
C765        C766   1.416       .  A
C765        C768   1.449   1_655  S
C766        C770   1.449   1_655  S
C767        N774   1.157       .  T
C768        N775   1.157       .  T
C769        N773   1.157       .  T
C770        N776   1.157       .  T
C771        N780   1.157       .  T
C772        N778   1.158       .  T
C781        C782   1.410       .  A
C781        C786   1.411       .  A
C781        C799   1.451       .  S
C782        C787   1.502       .  S
C782        C783   1.413       .  A
C783        C784   1.416       .  A
C783        C788   1.449       .  S
C784        C785   1.412       .  A
C784        C800   1.449       .  S
C785        C786   1.416       .  A
C786        C789   1.451       .  S
C787        C790   1.412       .  A
C787        C794   1.408       .  A
C788        N805   1.157       .  T
C789        N807   1.157       .  T
C790        C791   1.412       .  A
C790        C795   1.451       .  S
C791        C792   1.417       .  A
C791        C797   1.451       .  S
C792        C793   1.423       .  A
C793        C794   1.414       .  A
C793        C796   1.452       .  S
C794        C798   1.450       .  S
C795        N802   1.157       .  T
C796        N803   1.157       .  T
C797        N801   1.157       .  T
C798        N804   1.157       .  T
C799        N808   1.157       .  T
C800        N806   1.157       .  T
C809        C810   1.410       .  A
C809        C814   1.411       .  A
C809        C827   1.450       .  S
C810        C815   1.494       .  S
C810        C811   1.414       .  A
C811        C812   1.407       .  A
C811        C816   1.452       .  S
C812        C813   1.410       .  A
C812        C828   1.452       .  S
C813        C814   1.413       .  A
C814        C817   1.448       .  S
C815        C818   1.413       .  A
C815        C822   1.406       .  A
C816        N833   1.157       .  T
C817        N835   1.156       .  T
C818        C819   1.414       .  A
C818        C823   1.450       .  S
C819        C820   1.413       .  A
C819        C825   1.450       .  S
C820        C821   1.419       .  A
C821        C822   1.404       .  A
C821        C824   1.451       .  S
C822        C826   1.453       .  S
C823        N830   1.157       .  T
C824        N831   1.157       .  T
C825        N829   1.157       .  T
C826        N832   1.157       .  T
C827        N836   1.157       .  T
C828        N834   1.157       .  T
C837        C838   1.415       .  A
C837        C842   1.415       .  A
C837        C855   1.450       .  S
C838        C843   1.506       .  S
C838        C839   1.412       .  A
C839        C840   1.414       .  A
C839        C844   1.450       .  S
C840        C841   1.414       .  A
C840        C856   1.450       .  S
C841        C842   1.413       .  A
C842        C845   1.451       .  S
C843        C846   1.414       .  A
C843        C850   1.411       .  A
C844        N861   1.157   1_655  T
C845        N863   1.157       .  T
C846        C847   1.415       .  A
C846        C851   1.450       .  S
C847        C848   1.414       .  A
C847        C853   1.451       .  S
C848        C849   1.418       .  A
C849        C850   1.415       .  A
C849        C852   1.451       .  S
C850        C854   1.451       .  S
C851        N858   1.157       .  T
C852        N859   1.157       .  T
C853        N857   1.157       .  T
C854        N860   1.157       .  T
C855        N864   1.157       .  T
C856        N862   1.157       .  T
C865        C866   1.412       .  A
C865        C870   1.414       .  A
C865        C883   1.450       .  S
C866        C871   1.499       .  S
C866        C867   1.409       .  A
C867        C868   1.411   1_554  A
C867        C872   1.451   1_554  S
C868        C869   1.415       .  A
C868        C884   1.449       .  S
C869        C870   1.413   1_556  A
C870        C873   1.448       .  S
C871        C874   1.411       .  A
C871        C878   1.407       .  A
C872        N889   1.157       .  T
C873        N891   1.157       .  T
C874        C875   1.417       .  A
C874        C879   1.449       .  S
C875        C876   1.417       .  A
C875        C881   1.450       .  S
C876        C877   1.426       .  A
C877        C878   1.408       .  A
C877        C880   1.453       .  S
C878        C882   1.455       .  S
C879        N886   1.157   1_655  T
C880        N887   1.157       .  T
C881        N885   1.157       .  T
C882        N888   1.157       .  T
C883        N892   1.157       .  T
C884        N890   1.156       .  T
C893        C894   1.409       .  A
C893        C898   1.410       .  A
C893        C911   1.453       .  S
C894        C899   1.497   1_556  S
C894        C895   1.410       .  A
C895        C896   1.410       .  A
C895        C900   1.450   1_556  S
C896        C897   1.417       .  A
C896        C912   1.450       .  S
C897        C898   1.425       .  A
C898        C901   1.452       .  S
C899        C902   1.408       .  A
C899        C906   1.411       .  A
C900        N917   1.157       .  T
C901        N919   1.158       .  T
C902        C903   1.411       .  A
C902        C907   1.451       .  S
C903        C904   1.423       .  A
C903        C909   1.451       .  S
C904        C905   1.417       .  A
C905        C906   1.411       .  A
C905        C908   1.449       .  S
C906        C910   1.452   1_554  S
C907        N914   1.157       .  T
C908        N915   1.157       .  T
C909        N913   1.157   1_545  T
C910        N916   1.157       .  T
C911        N920   1.157       .  T
C912        N918   1.157       .  T
C921        C922   1.409       .  A
C921        C926   1.412       .  A
C921        C939   1.451       .  S
C922        C927   1.507       .  S
C922        C923   1.415       .  A
C923        C924   1.418       .  A
C923        C928   1.450       .  S
C924        C925   1.416       .  A
C924        C940   1.450       .  S
C925        C926   1.419       .  A
C926        C929   1.451       .  S
C927        C930   1.417       .  A
C927        C934   1.412       .  A
C928        N945   1.157       .  T
C929        N947   1.157       .  T
C930        C931   1.414       .  A
C930        C935   1.451       .  S
C931        C932   1.410       .  A
C931        C937   1.450       .  S
C932        C933   1.415       .  A
C933        C934   1.413       .  A
C933        C936   1.451       .  S
C934        C938   1.450       .  S
C935        N942   1.157       .  T
C936        N943   1.157       .  T
C937        N941   1.157       .  T
C938        N944   1.157       .  T
C939        N948   1.157   1_655  T
C940        N946   1.157       .  T
C949        C950   1.408       .  A
C949        C954   1.413       .  A
C949        C967   1.454       .  S
C950        C955   1.506       .  S
C950        C951   1.411       .  A
C951        C952   1.419       .  A
C951        C956   1.449       .  S
C952        C953   1.419       .  A
C952        C968   1.449       .  S
C953        C954   1.429       .  A
C954        C957   1.453       .  S
C955        C958   1.414       .  A
C955        C962   1.412       .  A
C956        N973   1.157   1_655  T
C957        N975   1.157       .  T
C958        C959   1.415       .  A
C958        C963   1.450       .  S
C959        C960   1.414       .  A
C959        C965   1.451       .  S
C960        C961   1.413       .  A
C961        C962   1.414       .  A
C961        C964   1.450       .  S
C962        C966   1.450       .  S
C963        N970   1.157       .  T
C964        N971   1.157       .  T
C965        N969   1.157       .  T
C966        N972   1.157       .  T
C967        N976   1.157       .  T
C968        N974   1.157       .  T
C977        C978   1.407       .  A
C977        C982   1.408       .  A
C977        C995   1.452       .  S
C978        C983   1.493       .  S
C978        C979   1.411       .  A
C979        C980   1.411       .  A
C979        C984   1.450       .  S
C980        C981   1.413       .  A
C980        C996   1.450       .  S
C981        C982   1.422       .  A
C982        C985   1.453       .  S
C983        C986   1.407       .  A
C983        C990   1.410       .  A
C984       N1001   1.157       .  T
C985       N1003   1.158       .  T
C986        C987   1.405       .  A
C986        C991   1.453       .  S
C987        C988   1.415       .  A
C987        C993   1.446       .  S
C988        C989   1.417       .  A
C989        C990   1.413       .  A
C989        C992   1.451       .  S
C990        C994   1.450       .  S
C991        N998   1.157       .  T
C992        N999   1.157   1_545  T
C993        N997   1.155       .  T
C994       N1000   1.157       .  T
C995       N1004   1.157       .  T
C996       N1002   1.157       .  T
C1005      C1006   1.411       .  A
C1005      C1010   1.416       .  A
C1005      C1023   1.449       .  S
C1006      C1011   1.493   1_556  S
C1006      C1007   1.405       .  A
C1007      C1008   1.405       .  A
C1007      C1012   1.455   1_556  S
C1008      C1009   1.425       .  A
C1008      C1024   1.452       .  S
C1009      C1010   1.415       .  A
C1010      C1013   1.449       .  S
C1011      C1014   1.409       .  A
C1011      C1018   1.413   1_554  A
C1012      N1029   1.157       .  T
C1013      N1031   1.157       .  T
C1014      C1015   1.409       .  A
C1014      C1019   1.450       .  S
C1015      C1016   1.413       .  A
C1015      C1021   1.451       .  S
C1016      C1017   1.412       .  A
C1017      C1018   1.410   1_554  A
C1017      C1020   1.451       .  S
C1018      C1022   1.451       .  S
C1019      N1026   1.157       .  T
C1020      N1027   1.157       .  T
C1021      N1025   1.157       .  T
C1022      N1028   1.157       .  T
C1023      N1032   1.157       .  T
C1024      N1030   1.157       .  T
C1033      C1034   1.413       .  A
C1033      C1038   1.410       .  A
C1033      C1051   1.452       .  S
C1034      C1039   1.498       .  S
C1034      C1035   1.410       .  A
C1035      C1036   1.411   1_554  A
C1035      C1040   1.451       .  S
C1036      C1037   1.419       .  A
C1036      C1052   1.451       .  S
C1037      C1038   1.415   1_556  A
C1038      C1041   1.450       .  S
C1039      C1042   1.408       .  A
C1039      C1046   1.410       .  A
C1040      N1057   1.157       .  T
C1041      N1059   1.157       .  T
C1042      C1043   1.411       .  A
C1042      C1047   1.452       .  S
C1043      C1044   1.424       .  A
C1043      C1049   1.452       .  S
C1044      C1045   1.420       .  A
C1045      C1046   1.410       .  A
C1045      C1048   1.452       .  S
C1046      C1050   1.452       .  S
C1047      N1054   1.157       .  T
C1048      N1055   1.157       .  T
C1049      N1053   1.158       .  T
C1050      N1056   1.157   1_554  T
C1051      N1060   1.157       .  T
C1052      N1058   1.157       .  T
C1061      C1062   1.410       .  A
C1061      C1066   1.406       .  A
C1061      C1079   1.452       .  S
C1062      C1067   1.495       .  S
C1062      C1063   1.411       .  A
C1063      C1064   1.414       .  A
C1063      C1068   1.449       .  S
C1064      C1065   1.417       .  A
C1064      C1080   1.451       .  S
C1065      C1066   1.414       .  A
C1066      C1069   1.452       .  S
C1067      C1070   1.412       .  A
C1067      C1074   1.405       .  A
C1068      N1085   1.157       .  T
C1069      N1087   1.157       .  T
C1070      C1071   1.417       .  A
C1070      C1075   1.449       .  S
C1071      C1072   1.415       .  A
C1071      C1077   1.449       .  S
C1072      C1073   1.425       .  A
C1073      C1074   1.406       .  A
C1073      C1076   1.453       .  S
C1074      C1078   1.454       .  S
C1075      N1082   1.157       .  T
C1076      N1083   1.157       .  T
C1077      N1081   1.157       .  T
C1078      N1084   1.157       .  T
C1079      N1088   1.157       .  T
C1080      N1086   1.158       .  T
C1089      C1090   1.410       .  A
C1089      C1094   1.411       .  A
C1089      C1107   1.449       .  S
C1090      C1095   1.490       .  S
C1090      C1091   1.411       .  A
C1091      C1092   1.404       .  A
C1091      C1096   1.452       .  S
C1092      C1093   1.410       .  A
C1092      C1108   1.452       .  S
C1093      C1094   1.413       .  A
C1094      C1097   1.451       .  S
C1095      C1098   1.405       .  A
C1095      C1102   1.411       .  A
C1096      N1113   1.157       .  T
C1097      N1115   1.158       .  T
C1098      C1099   1.407       .  A
C1098      C1103   1.452       .  S
C1099      C1100   1.419       .  A
C1099      C1105   1.449       .  S
C1100      C1101   1.412       .  A
C1101      C1102   1.411       .  A
C1101      C1104   1.449       .  S
C1102      C1106   1.450       .  S
C1103      N1110   1.157       .  T
C1104      N1111   1.157       .  T
C1105      N1109   1.157       .  T
C1106      N1112   1.157       .  T
C1107      N1116   1.157       .  T
C1108      N1114   1.157       .  T
C1117      C1118   1.411       .  A
C1117      C1122   1.414       .  A
C1117      C1135   1.449       .  S
C1118      C1123   1.499       .  S
C1118      C1119   1.413       .  A
C1119      C1120   1.410       .  A
C1119      C1124   1.450       .  S
C1120      C1121   1.409       .  A
C1120      C1136   1.451       .  S
C1121      C1122   1.413       .  A
C1122      C1125   1.450       .  S
C1123      C1126   1.413       .  A
C1123      C1130   1.409       .  A
C1124      N1141   1.157       .  T
C1125      N1143   1.157       .  T
C1126      C1127   1.414       .  A
C1126      C1131   1.451       .  S
C1127      C1128   1.413       .  A
C1127      C1133   1.450       .  S
C1128      C1129   1.414       .  A
C1129      C1130   1.411       .  A
C1129      C1132   1.451       .  S
C1130      C1134   1.449       .  S
C1131      N1138   1.157       .  T
C1132      N1139   1.157       .  T
C1133      N1137   1.157       .  T
C1134      N1140   1.157       .  T
C1135      N1144   1.157       .  T
C1136      N1142   1.157       .  T
C1145      C1146   1.411       .  A
C1145      C1150   1.412       .  A
C1145      C1163   1.451       .  S
C1146      C1151   1.498       .  S
C1146      C1147   1.411       .  A
C1147      C1148   1.412       .  A
C1147      C1152   1.451       .  S
C1148      C1149   1.414       .  A
C1148      C1164   1.450       .  S
C1149      C1150   1.412       .  A
C1150      C1153   1.448       .  S
C1151      C1154   1.411       .  A
C1151      C1158   1.408       .  A
C1152      N1169   1.157       .  T
C1153      N1171   1.157       .  T
C1154      C1155   1.415       .  A
C1154      C1159   1.449       .  S
C1155      C1156   1.415       .  A
C1155      C1161   1.449       .  S
C1156      C1157   1.424       .  A
C1157      C1158   1.409       .  A
C1157      C1160   1.453       .  S
C1158      C1162   1.454       .  S
C1159      N1166   1.157       .  T
C1160      N1167   1.157       .  T
C1161      N1165   1.157       .  T
C1162      N1168   1.157       .  T
C1163      N1172   1.157       .  T
C1164      N1170   1.157       .  T
C1173      C1174   1.410       .  A
C1173      C1178   1.413       .  A
C1173      C1191   1.451       .  S
C1174      C1179   1.501       .  S
C1174      C1175   1.410       .  A
C1175      C1176   1.410       .  A
C1175      C1180   1.452       .  S
C1176      C1177   1.420       .  A
C1176      C1192   1.449       .  S
C1177      C1178   1.424       .  A
C1178      C1181   1.450       .  S
C1179      C1182   1.410       .  A
C1179      C1186   1.414       .  A
C1180      N1197   1.157       .  T
C1181      N1199   1.158       .  T
C1182      C1183   1.409       .  A
C1182      C1187   1.451       .  S
C1183      C1184   1.418       .  A
C1183      C1189   1.450       .  S
C1184      C1185   1.415       .  A
C1185      C1186   1.413       .  A
C1185      C1188   1.450       .  S
C1186      C1190   1.452       .  S
C1187      N1194   1.157       .  T
C1188      N1195   1.157       .  T
C1189      N1193   1.156       .  T
C1190      N1196   1.157       .  T
C1191      N1200   1.157       .  T
C1192      N1198   1.156       .  T
C1201      C1202   1.414       .  A
C1201      C1206   1.419       .  A
C1201      C1219   1.449       .  S
C1202      C1207   1.505       .  S
C1202      C1203   1.409       .  A
C1203      C1204   1.409       .  A
C1203      C1208   1.451       .  S
C1204      C1205   1.418       .  A
C1204      C1220   1.452       .  S
C1205      C1206   1.414       .  A
C1206      C1209   1.449       .  S
C1207      C1210   1.411       .  A
C1207      C1214   1.408       .  A
C1208      N1225   1.157       .  T
C1209      N1227   1.157   1_545  T
C1210      C1211   1.415       .  A
C1210      C1215   1.452       .  S
C1211      C1212   1.422       .  A
C1211      C1217   1.451       .  S
C1212      C1213   1.424       .  A
C1213      C1214   1.415       .  A
C1213      C1216   1.451       .  S
C1214      C1218   1.451       .  S
C1215      N1222   1.157       .  T
C1216      N1223   1.157       .  T
C1217      N1221   1.158       .  T
C1218      N1224   1.157       .  T
C1219      N1228   1.157       .  T
C1220      N1226   1.157       .  T
C1229      C1230   1.414       .  A
C1229      C1234   1.414       .  A
C1229      C1247   1.450       .  S
C1230      C1235   1.505       .  S
C1230      C1231   1.411       .  A
C1231      C1232   1.413       .  A
C1231      C1236   1.451       .  S
C1232      C1233   1.420       .  A
C1232      C1248   1.451       .  S
C1233      C1234   1.414       .  A
C1234      C1237   1.451       .  S
C1235      C1238   1.414       .  A
C1235      C1242   1.413       .  A
C1236      N1253   1.157       .  T
C1237      N1255   1.157       .  T
C1238      C1239   1.417       .  A
C1238      C1243   1.449       .  S
C1239      C1240   1.414       .  A
C1239      C1245   1.449       .  S
C1240      C1241   1.416       .  A
C1241      C1242   1.409       .  A
C1241      C1244   1.453       .  S
C1242      C1246   1.452       .  S
C1243      N1250   1.157       .  T
C1244      N1251   1.158       .  T
C1245      N1249   1.157       .  T
C1246      N1252   1.157       .  T
C1247      N1256   1.157       .  T
C1248      N1254   1.157       .  T
C1257      C1258   1.412       .  A
C1257      C1262   1.411       .  A
C1257      C1275   1.450       .  S
C1258      C1263   1.496       .  S
C1258      C1259   1.409   1_554  A
C1259      C1260   1.412       .  A
C1259      C1264   1.451       .  S
C1260      C1261   1.417       .  A
C1260      C1276   1.450       .  S
C1261      C1262   1.411   1_556  A
C1262      C1265   1.449       .  S
C1263      C1266   1.412       .  A
C1263      C1270   1.407       .  A
C1264      N1281   1.157       .  T
C1265      N1283   1.157       .  T
C1266      C1267   1.416       .  A
C1266      C1271   1.448       .  S
C1267      C1268   1.414       .  A
C1267      C1273   1.450       .  S
C1268      C1269   1.423       .  A
C1269      C1270   1.405       .  A
C1269      C1272   1.453       .  S
C1270      C1274   1.454       .  S
C1271      N1278   1.157   1_565  T
C1272      N1279   1.157       .  T
C1273      N1277   1.157       .  T
C1274      N1280   1.157       .  T
C1275      N1284   1.157       .  T
C1276      N1282   1.157       .  T
C1285      C1286   1.412       .  A
C1285      C1290   1.414       .  A
C1285      C1303   1.451   1_556  S
C1286      C1291   1.507       .  S
C1286      C1287   1.410       .  A
C1287      C1288   1.415       .  A
C1287      C1292   1.452       .  S
C1288      C1289   1.427       .  A
C1288      C1304   1.451       .  S
C1289      C1290   1.420       .  A
C1290      C1293   1.450       .  S
C1291      C1294   1.415       .  A
C1291      C1298   1.412   1_556  A
C1292      N1309   1.157       .  T
C1293      N1311   1.157       .  T
C1294      C1295   1.413   1_556  A
C1294      C1299   1.451       .  S
C1295      C1296   1.413       .  A
C1295      C1301   1.450       .  S
C1296      C1297   1.420       .  A
C1297      C1298   1.414       .  A
C1297      C1300   1.452       .  S
C1298      C1302   1.451       .  S
C1299      N1306   1.157       .  T
C1300      N1307   1.157       .  T
C1301      N1305   1.157       .  T
C1302      N1308   1.157       .  T
C1303      N1312   1.157       .  T
C1304      N1310   1.158       .  T
C1313      C1314   1.414       .  A
C1313      C1318   1.420   1_565  A
C1313      C1331   1.449   1_565  S
C1314      C1319   1.514       .  S
C1314      C1315   1.412       .  A
C1315      C1316   1.415       .  A
C1315      C1320   1.451       .  S
C1316      C1317   1.417       .  A
C1316      C1332   1.451       .  S
C1317      C1318   1.415   1_565  A
C1318      C1321   1.449       .  S
C1319      C1322   1.412       .  A
C1319      C1326   1.410       .  A
C1320      N1337   1.157       .  T
C1321      N1339   1.157       .  T
C1322      C1323   1.418       .  A
C1322      C1327   1.452       .  S
C1323      C1324   1.422       .  A
C1323      C1329   1.450       .  S
C1324      C1325   1.427       .  A
C1325      C1326   1.420       .  A
C1325      C1328   1.451       .  S
C1326      C1330   1.450       .  S
C1327      N1334   1.157       .  T
C1328      N1335   1.158       .  T
C1329      N1333   1.157       .  T
C1330      N1336   1.157       .  T
C1331      N1340   1.157       .  T
C1332      N1338   1.157       .  T
C1341      C1342   1.416       .  A
C1341      C1346   1.418       .  A
C1341      C1359   1.449       .  S
C1342      C1347   1.507       .  S
C1342      C1343   1.416       .  A
C1343      C1344   1.408       .  A
C1343      C1348   1.452       .  S
C1344      C1345   1.412       .  A
C1344      C1360   1.453       .  S
C1345      C1346   1.412       .  A
C1346      C1349   1.449       .  S
C1347      C1350   1.417       .  A
C1347      C1354   1.413       .  A
C1348      N1365   1.157       .  T
C1349      N1367   1.157       .  T
C1350      C1351   1.414       .  A
C1350      C1355   1.448       .  S
C1351      C1352   1.411       .  A
C1351      C1357   1.451       .  S
C1352      C1353   1.417       .  A
C1353      C1354   1.411       .  A
C1353      C1356   1.452       .  S
C1354      C1358   1.451       .  S
C1355      N1362   1.157       .  T
C1356      N1363   1.157       .  T
C1357      N1361   1.157       .  T
C1358      N1364   1.157       .  T
C1359      N1368   1.157       .  T
C1360      N1366   1.157       .  T
C1369      C1370   1.414       .  A
C1369      C1374   1.413       .  A
C1369      C1387   1.450       .  S
C1370      C1375   1.499       .  S
C1370      C1371   1.410       .  A
C1371      C1372   1.411       .  A
C1371      C1376   1.449       .  S
C1372      C1373   1.413       .  A
C1372      C1388   1.450       .  S
C1373      C1374   1.411       .  A
C1374      C1377   1.451       .  S
C1375      C1378   1.409       .  A
C1375      C1382   1.414       .  A
C1376      N1393   1.157       .  T
C1377      N1395   1.157       .  T
C1378      C1379   1.410       .  A
C1378      C1383   1.449       .  S
C1379      C1380   1.413       .  A
C1379      C1385   1.450       .  S
C1380      C1381   1.412       .  A
C1381      C1382   1.414       .  A
C1381      C1384   1.450       .  S
C1382      C1386   1.451       .  S
C1383      N1390   1.157   1_565  T
C1384      N1391   1.157       .  T
C1385      N1389   1.157       .  T
C1386      N1392   1.157       .  T
C1387      N1396   1.157       .  T
C1388      N1394   1.157   1_565  T
C1397      C1398   1.413       .  A
C1397      C1402   1.410       .  A
C1397      C1415   1.450       .  S
C1398      C1403   1.496       .  S
C1398      C1399   1.409       .  A
C1399      C1400   1.410       .  A
C1399      C1404   1.450       .  S
C1400      C1401   1.414       .  A
C1400      C1416   1.450       .  S
C1401      C1402   1.411       .  A
C1402      C1405   1.451       .  S
C1403      C1406   1.408       .  A
C1403      C1410   1.411       .  A
C1404      N1421   1.157       .  T
C1405      N1423   1.157       .  T
C1406      C1407   1.405       .  A
C1406      C1411   1.455       .  S
C1407      C1408   1.421       .  A
C1407      C1413   1.451       .  S
C1408      C1409   1.417       .  A
C1409      C1410   1.417       .  A
C1409      C1412   1.449       .  S
C1410      C1414   1.449   1_565  S
C1411      N1418   1.157       .  T
C1412      N1419   1.157       .  T
C1413      N1417   1.157       .  T
C1414      N1420   1.157       .  T
C1415      N1424   1.157       .  T
C1416      N1422   1.157   1_565  T
C1425      C1426   1.410       .  A
C1425      C1430   1.413       .  A
C1425      C1443   1.452       .  S
C1426      C1431   1.500       .  S
C1426      C1427   1.408       .  A
C1427      C1428   1.414       .  A
C1427      C1432   1.451       .  S
C1428      C1429   1.423       .  A
C1428      C1444   1.450       .  S
C1429      C1430   1.419       .  A
C1430      C1433   1.449       .  S
C1431      C1434   1.406       .  A
C1431      C1438   1.408       .  A
C1432      N1449   1.157       .  T
C1433      N1451   1.157       .  T
C1434      C1435   1.411       .  A
C1434      C1439   1.451       .  S
C1435      C1436   1.426       .  A
C1435      C1441   1.451       .  S
C1436      C1437   1.425       .  A
C1437      C1438   1.414       .  A
C1437      C1440   1.453       .  S
C1438      C1442   1.451       .  S
C1439      N1446   1.157       .  T
C1440      N1447   1.158       .  T
C1441      N1445   1.158       .  T
C1442      N1448   1.157       .  T
C1443      N1452   1.157       .  T
C1444      N1450   1.157       .  T
C1453      C1454   1.412       .  A
C1453      C1458   1.414       .  A
C1453      C1471   1.450       .  S
C1454      C1459   1.506       .  S
C1454      C1455   1.411       .  A
C1455      C1456   1.415       .  A
C1455      C1460   1.450       .  S
C1456      C1457   1.420       .  A
C1456      C1472   1.451       .  S
C1457      C1458   1.417       .  A
C1458      C1461   1.451       .  S
C1459      C1462   1.414       .  A
C1459      C1466   1.412       .  A
C1460      N1477   1.157       .  T
C1461      N1479   1.157       .  T
C1462      C1463   1.418       .  A
C1462      C1467   1.449       .  S
C1463      C1464   1.414       .  A
C1463      C1469   1.450   1_455  S
C1464      C1465   1.413       .  A
C1465      C1466   1.411       .  A
C1465      C1468   1.452       .  S
C1466      C1470   1.451       .  S
C1467      N1474   1.157   1_455  T
C1468      N1475   1.157       .  T
C1469      N1473   1.157       .  T
C1470      N1476   1.157       .  T
C1471      N1480   1.157       .  T
C1472      N1478   1.157       .  T
C1481      C1482   1.412       .  A
C1481      C1486   1.415       .  A
C1481      C1499   1.451       .  S
C1482      C1487   1.507       .  S
C1482      C1483   1.415       .  A
C1483      C1484   1.414       .  A
C1483      C1488   1.451       .  S
C1484      C1485   1.415       .  A
C1484      C1500   1.451       .  S
C1485      C1486   1.419       .  A
C1486      C1489   1.451       .  S
C1487      C1490   1.414       .  A
C1487      C1494   1.415       .  A
C1488      N1505   1.157       .  T
C1489      N1507   1.157       .  T
C1490      C1491   1.409       .  A
C1490      C1495   1.451       .  S
C1491      C1492   1.414       .  A
C1491      C1497   1.453       .  S
C1492      C1493   1.412       .  A
C1493      C1494   1.416       .  A
C1493      C1496   1.450       .  S
C1494      C1498   1.449       .  S
C1495      N1502   1.157       .  T
C1496      N1503   1.157       .  T
C1497      N1501   1.157       .  T
C1498      N1504   1.157       .  T
C1499      N1508   1.157       .  T
C1500      N1506   1.157       .  T
C1509      C1510   1.406       .  A
C1509      C1514   1.405       .  A
C1509      C1527   1.452       .  S
C1510      C1515   1.491       .  S
C1510      C1511   1.411       .  A
C1511      C1512   1.413       .  A
C1511      C1516   1.450       .  S
C1512      C1513   1.414       .  A
C1512      C1528   1.449       .  S
C1513      C1514   1.416       .  A
C1514      C1517   1.448       .  S
C1515      C1518   1.409       .  A
C1515      C1522   1.411       .  A
C1516      N1533   1.157       .  T
C1517      N1535   1.156       .  T
C1518      C1519   1.411       .  A
C1518      C1523   1.450       .  S
C1519      C1520   1.415       .  A
C1519      C1525   1.451       .  S
C1520      C1521   1.413       .  A
C1521      C1522   1.407       .  A
C1521      C1524   1.452       .  S
C1522      C1526   1.452       .  S
C1523      N1530   1.157       .  T
C1524      N1531   1.157       .  T
C1525      N1529   1.157       .  T
C1526      N1532   1.157       .  T
C1527      N1536   1.157       .  T
C1528      N1534   1.157       .  T
C1537      C1538   1.410       .  A
C1537      C1542   1.415       .  A
C1537      C1555   1.450       .  S
C1538      C1543   1.497       .  S
C1538      C1539   1.409       .  A
C1539      C1540   1.406       .  A
C1539      C1544   1.453   1_556  S
C1540      C1541   1.423       .  A
C1540      C1556   1.451       .  S
C1541      C1542   1.424       .  A
C1542      C1545   1.450       .  S
C1543      C1546   1.412   1_556  A
C1543      C1550   1.415       .  A
C1544      N1561   1.157       .  T
C1545      N1563   1.158       .  T
C1546      C1547   1.407       .  A
C1546      C1551   1.451       .  S
C1547      C1548   1.411       .  A
C1547      C1553   1.451       .  S
C1548      C1549   1.411       .  A
C1549      C1550   1.411   1_554  A
C1549      C1552   1.451       .  S
C1550      C1554   1.450       .  S
C1551      N1558   1.157       .  T
C1552      N1559   1.157   1_554  T
C1553      N1557   1.157       .  T
C1554      N1560   1.157       .  T
C1555      N1564   1.157       .  T
C1556      N1562   1.157       .  T
C1565      C1566   1.408       .  A
C1565      C1570   1.410       .  A
C1565      C1583   1.450       .  S
C1566      C1571   1.493       .  S
C1566      C1567   1.407       .  A
C1567      C1568   1.409       .  A
C1567      C1572   1.452       .  S
C1568      C1569   1.422       .  A
C1568      C1584   1.452       .  S
C1569      C1570   1.418       .  A
C1570      C1573   1.451       .  S
C1571      C1574   1.405       .  A
C1571      C1578   1.405       .  A
C1572      N1589   1.157       .  T
C1573      N1591   1.157       .  T
C1574      C1575   1.414   1_554  A
C1574      C1579   1.451       .  S
C1575      C1576   1.428       .  A
C1575      C1581   1.451       .  S
C1576      C1577   1.432       .  A
C1577      C1578   1.409   1_556  A
C1577      C1580   1.454       .  S
C1578      C1582   1.455       .  S
C1579      N1586   1.157       .  T
C1580      N1587   1.158       .  T
C1581      N1585   1.158       .  T
C1582      N1588   1.157       .  T
C1583      N1592   1.157   1_554  T
C1584      N1590   1.158       .  T
C1593      C1594   1.411       .  A
C1593      C1598   1.413       .  A
C1593      C1611   1.450       .  S
C1594      C1599   1.507       .  S
C1594      C1595   1.414       .  A
C1595      C1596   1.417       .  A
C1595      C1600   1.449       .  S
C1596      C1597   1.412       .  A
C1596      C1612   1.450   1_655  S
C1597      C1598   1.414       .  A
C1598      C1601   1.451       .  S
C1599      C1602   1.410       .  A
C1599      C1606   1.412       .  A
C1600      N1617   1.157   1_655  T
C1601      N1619   1.157       .  T
C1602      C1603   1.417       .  A
C1602      C1607   1.450       .  S
C1603      C1604   1.423       .  A
C1603      C1609   1.451       .  S
C1604      C1605   1.418       .  A
C1605      C1606   1.413       .  A
C1605      C1608   1.452       .  S
C1606      C1610   1.450       .  S
C1607      N1614   1.157       .  T
C1608      N1615   1.157       .  T
C1609      N1613   1.158       .  T
C1610      N1616   1.157       .  T
C1611      N1620   1.157       .  T
C1612      N1618   1.157       .  T
C1621      C1622   1.409       .  A
C1621      C1626   1.415       .  A
C1621      C1639   1.450       .  S
C1622      C1627   1.502       .  S
C1622      C1623   1.411       .  A
C1623      C1624   1.413       .  A
C1623      C1628   1.451       .  S
C1624      C1625   1.417       .  A
C1624      C1640   1.451       .  S
C1625      C1626   1.423       .  A
C1626      C1629   1.452       .  S
C1627      C1630   1.409       .  A
C1627      C1634   1.412       .  A
C1628      N1645   1.157       .  T
C1629      N1647   1.158       .  T
C1630      C1631   1.410       .  A
C1630      C1635   1.451       .  S
C1631      C1632   1.418       .  A
C1631      C1637   1.452       .  S
C1632      C1633   1.415       .  A
C1633      C1634   1.417       .  A
C1633      C1636   1.450       .  S
C1634      C1638   1.449       .  S
C1635      N1642   1.157       .  T
C1636      N1643   1.157       .  T
C1637      N1641   1.157       .  T
C1638      N1644   1.157       .  T
C1639      N1648   1.157       .  T
C1640      N1646   1.157       .  T
C1649      C1650   1.409       .  A
C1649      C1654   1.406       .  A
C1649      C1667   1.452       .  S
C1650      C1655   1.497       .  S
C1650      C1651   1.411       .  A
C1651      C1652   1.416       .  A
C1651      C1656   1.450       .  S
C1652      C1653   1.418       .  A
C1652      C1668   1.451       .  S
C1653      C1654   1.418       .  A
C1654      C1657   1.453       .  S
C1655      C1658   1.413       .  A
C1655      C1662   1.405       .  A
C1656      N1673   1.157       .  T
C1657      N1675   1.157       .  T
C1658      C1659   1.416       .  A
C1658      C1663   1.450       .  S
C1659      C1660   1.415       .  A
C1659      C1665   1.450       .  S
C1660      C1661   1.423       .  A
C1661      C1662   1.407       .  A
C1661      C1664   1.452       .  S
C1662      C1666   1.452       .  S
C1663      N1670   1.157       .  T
C1664      N1671   1.157       .  T
C1665      N1669   1.157       .  T
C1666      N1672   1.157       .  T
C1667      N1676   1.157       .  T
C1668      N1674   1.158       .  T
C1677      C1678   1.414       .  A
C1677      C1682   1.415       .  A
C1677      C1695   1.450       .  S
C1678      C1683   1.502       .  S
C1678      C1679   1.409       .  A
C1679      C1680   1.411       .  A
C1679      C1684   1.451       .  S
C1680      C1681   1.418       .  A
C1680      C1696   1.451       .  S
C1681      C1682   1.413       .  A
C1682      C1685   1.450       .  S
C1683      C1686   1.410       .  A
C1683      C1690   1.415       .  A
C1684      N1701   1.157       .  T
C1685      N1703   1.157       .  T
C1686      C1687   1.411       .  A
C1686      C1691   1.450       .  S
C1687      C1688   1.413       .  A
C1687      C1693   1.450       .  S
C1688      C1689   1.411       .  A
C1689      C1690   1.414       .  A
C1689      C1692   1.451       .  S
C1690      C1694   1.450       .  S
C1691      N1698   1.157       .  T
C1692      N1699   1.157       .  T
C1693      N1697   1.157       .  T
C1694      N1700   1.157       .  T
C1695      N1704   1.157       .  T
C1696      N1702   1.157       .  T
C1705      C1706   1.417       .  A
C1705      C1710   1.416       .  A
C1705      C1723   1.450       .  S
C1706      C1711   1.507       .  S
C1706      C1707   1.412       .  A
C1707      C1708   1.409       .  A
C1707      C1712   1.452       .  S
C1708      C1709   1.418       .  A
C1708      C1724   1.453       .  S
C1709      C1710   1.413       .  A
C1710      C1713   1.450       .  S
C1711      C1714   1.411       .  A
C1711      C1718   1.414       .  A
C1712      N1729   1.157       .  T
C1713      N1731   1.157       .  T
C1714      C1715   1.412       .  A
C1714      C1719   1.454       .  S
C1715      C1716   1.420       .  A
C1715      C1721   1.449       .  S
C1716      C1717   1.418       .  A
C1717      C1718   1.416       .  A
C1717      C1720   1.450       .  S
C1718      C1722   1.451       .  S
C1719      N1726   1.158       .  T
C1720      N1727   1.157       .  T
C1721      N1725   1.157       .  T
C1722      N1728   1.157       .  T
C1723      N1732   1.157       .  T
C1724      N1730   1.157       .  T
C1733      C1734   1.410       .  A
C1733      C1738   1.413       .  A
C1733      C1751   1.450       .  S
C1734      C1739   1.503       .  S
C1734      C1735   1.413       .  A
C1735      C1736   1.413       .  A
C1735      C1740   1.450       .  S
C1736      C1737   1.412       .  A
C1736      C1752   1.451       .  S
C1737      C1738   1.415       .  A
C1738      C1741   1.448       .  S
C1739      C1742   1.408       .  A
C1739      C1746   1.410       .  A
C1740      N1757   1.157       .  T
C1741      N1759   1.156       .  T
C1742      C1743   1.411       .  A
C1742      C1747   1.454       .  S
C1743      C1744   1.426       .  A
C1743      C1749   1.453       .  S
C1744      C1745   1.420       .  A
C1745      C1746   1.419       .  A
C1745      C1748   1.449       .  S
C1746      C1750   1.449       .  S
C1747      N1754   1.157       .  T
C1748      N1755   1.157       .  T
C1749      N1753   1.157       .  T
C1750      N1756   1.157   1_455  T
C1751      N1760   1.157       .  T
C1752      N1758   1.157       .  T
