geometry optimzed in LAMMPS
_audit_creation_date              2020-12-01 
_audit_creation_method            'lammps2cif' 
_symmetry_space_group_name_H-M    'P1' 
_symmetry_Int_Tables_number       1 
_symmetry_cell_setting            triclinic 
loop_ 
_symmetry_equiv_pos_as_xyz 
  x,y,z 
_cell_length_a                    33.81916039 
_cell_length_b                    33.8157529429761 
_cell_length_c                    44.372343508045624 
_cell_angle_alpha                 89.82341312131169 
_cell_angle_beta                  89.98759682251044 
_cell_angle_gamma                 120.12580916566431 
loop_ 
_atom_site_label 
_atom_site_type_symbol 
_atom_site_fract_x 
_atom_site_fract_y 
_atom_site_fract_z 
_atom_site_charge 
O1          O  0.27501909  0.31779273  0.40284256    -0.82300
C2          C  0.33807487  0.36301302  0.02209381     0.97100
O3          O  0.36048062  0.35926096  0.00047839    -0.71400
O4          O  0.31884539  0.28195187  0.47094611    -0.75000
Al5        Al  0.34693587  0.34385255  0.45846325     1.49000
C6          C  0.28496959  0.24863232  0.45881346     0.92300
O7          O  0.21001956  0.28684364  0.47669939    -0.81200
O8          O  0.28169898  0.41426067  0.44416620    -0.74800
Al9        Al  0.24555464  0.30507771  0.44063026     1.90100
O10         O  0.23075022  0.35634750  0.49115545    -0.73900
O11         O  0.35684141  0.43705361  0.47538969    -0.73700
O12         O  0.30627025  0.37167970  0.01734985    -0.79400
O13         O  0.38330331  0.40504713  0.44543188    -0.77600
O14         O  0.29575535  0.34644358  0.45974418    -1.13700
O15         O  0.34197821  0.32785216  0.41669195    -0.72900
C16         C  0.31310263  0.32154480  0.39650461     0.97800
C17         C  0.20327109  0.31377249  0.49261273     0.94200
Al18       Al  0.29411313  0.39113724  0.48020461     1.55600
O19         O  0.25507384  0.25443641  0.44591992    -0.77500
C20         C  0.38815669  0.44000803  0.45859115     0.98400
C21         C  0.24894547  0.39040852  0.42652417     0.93300
O22         O  0.22560505  0.34738158  0.42951700    -0.82800
O23         O  0.06929955  0.32703690  0.35063088    -0.82300
C24         C  0.03793067  0.35939513  0.23104464     0.97100
O25         O  0.01182400  0.35385002  0.25314593    -0.71400
O26         O  0.98129277  0.28015754  0.28586458    -0.75000
Al27       Al  0.01467804  0.34315323  0.29543389     1.49000
C28         C  0.98199019  0.24874785  0.30061607     0.92300
O29         O  0.09221331  0.28517956  0.27757598    -0.81200
O30         O  0.15180236  0.41550080  0.30553232    -0.74800
Al31       Al  0.07982575  0.30778539  0.31346444     1.90100
O32         O  0.14021257  0.35356490  0.25972265    -0.73900
O33         O  0.09788618  0.43633642  0.27565773    -0.73700
O34         O  0.07891188  0.36936054  0.23513290    -0.79400
O35         O  0.03844364  0.40552959  0.30528809    -0.77600
O36         O  0.06887979  0.34692859  0.29308242    -1.13700
O37         O  0.00860726  0.33150119  0.33825724    -0.72900
C38         C  0.03492772  0.32997739  0.35807267     0.97800
C39         C  0.12506985  0.31084571  0.26032243     0.94200
Al40       Al  0.11363704  0.39017175  0.27082262     1.55600
O41         O  0.01843315  0.25649867  0.31340904    -0.77500
C42         C  0.06957963  0.43998740  0.29197894     0.98400
C43         C  0.16293092  0.39272595  0.32250739     0.93300
O44         O  0.14349173  0.34978962  0.32011337    -0.82800
O45         O  0.33370714  0.05885099  0.32137700    -0.82300
C46         C  0.37430064  0.03094952  0.43902726     0.97100
O47         O  0.36900162  0.00505956  0.41688030    -0.71400
O48         O  0.29492593  0.97139858  0.38495048    -0.75000
Al49       Al  0.35734475  0.00755345  0.37463550     1.49000
C50         C  0.26178327  0.97159496  0.37241682     0.92300
O51         O  0.29600060  0.08158723  0.39582446    -0.81200
O52         O  0.42441078  0.14374046  0.36300011    -0.74800
Al53       Al  0.31686543  0.06950929  0.35908246     1.90100
O54         O  0.36488942  0.13197655  0.41113813    -0.73900
O55         O  0.45025754  0.09252081  0.39312543    -0.73700
O56         O  0.38393485  0.07197722  0.43498411    -0.79400
O57         O  0.41940971  0.03354841  0.36367673    -0.77600
O58         O  0.35861021  0.06055514  0.37769697    -1.13700
O59         O  0.34539588  0.00177158  0.33173009    -0.72900
C60         C  0.34045711  0.02723209  0.31284965     0.97800
C61         C  0.32191618  0.11544827  0.41206243     0.94200
Al62       Al  0.40232895  0.10648563  0.39881337     1.55600
O63         O  0.26718373  0.00793163  0.36079217    -0.77500
C64         C  0.45410627  0.06451221  0.37659469     0.98400
C65         C  0.39955091  0.15271506  0.34634893     0.93300
O66         O  0.35703597  0.13347399  0.35109742    -0.82800
O67         O  0.33102418  0.25780003  0.26299373    -0.82300
C68         C  0.37048631  0.32782815  0.14477602     0.97100
O69         O  0.36331311  0.34706031  0.16690614    -0.71400
O70         O  0.28874686  0.30317847  0.19864771    -0.75000
Al71       Al  0.35148887  0.33231729  0.20898193     1.49000
C72         C  0.25700799  0.27035876  0.21276131     0.92300
O73         O  0.29371250  0.19784067  0.18790277    -0.81200
O74         O  0.42192008  0.26597735  0.22029685    -0.74800
Al75       Al  0.31436869  0.23024787  0.22493656     1.90100
O76         O  0.36295866  0.21873528  0.17189845    -0.73900
O77         O  0.44608427  0.34258803  0.19198646    -0.73700
O78         O  0.38164409  0.29767123  0.14894518    -0.79400
O79         O  0.41356225  0.37126840  0.21971117    -0.77600
O80         O  0.35510275  0.28177823  0.20618994    -1.13700
O81         O  0.33882920  0.32503554  0.25170427    -0.72900
C82         C  0.33497083  0.29544465  0.27099353     0.97800
C83         C  0.32007658  0.19168644  0.17082941     0.94200
Al84       Al  0.39956514  0.28119354  0.18499637     1.55600
O85         O  0.26391490  0.24048002  0.22438680    -0.77500
C86         C  0.44883409  0.37433114  0.20805949     0.98400
C87         C  0.39775412  0.23151359  0.23663507     0.93300
O88         O  0.35536305  0.20740906  0.23196707    -0.82800
O89         O  0.70026731  0.70861530  0.01358104    -0.82300
C90         C  0.64920847  0.65912964  0.39763758     0.97100
O91         O  0.67184663  0.65282264  0.41789985    -0.71400
O92         O  0.72344763  0.67298188  0.46614054    -0.75000
Al93       Al  0.65975854  0.64699586  0.45956095     1.49000
C94         C  0.75741985  0.71275613  0.46471197     0.92300
O95         O  0.70854670  0.79278755  0.45368740    -0.81200
O96         O  0.60145447  0.73387828  0.47072549    -0.74800
Al97       Al  0.70030137  0.74595907  0.48151382     1.90100
O98         O  0.65585970  0.75721362  0.41970947    -0.73900
O99         O  0.56548458  0.64820823  0.45598594    -0.73700
O100        O  0.62099005  0.67218639  0.40438839    -0.79400
O101        O  0.59683548  0.60604394  0.45247965    -0.77600
O102        O  0.65833564  0.69894758  0.46004190    -1.13700
O103        O  0.64768110  0.63806001  0.00181363    -0.72900
C104        C  0.67341434  0.66742404  0.02096700     0.97800
C105        C  0.69052722  0.79282744  0.42883884     0.94200
Al106      Al  0.61481435  0.70266660  0.43947682     1.55600
O107        O  0.75166236  0.74671910  0.46291739    -0.77500
C108        C  0.56169213  0.60940677  0.45486590     0.98400
C109        C  0.61857940  0.74731060  0.49657430     0.93300
O110        O  0.65640973  0.75063408  0.00338242    -0.82800
O111        O  0.94808823  0.26600828  0.48857483    -0.82300
C112        C  0.96878339  0.32420651  0.10890155     0.97100
O113        O  0.99658082  0.34524141  0.08766254    -0.71400
O114        O  0.02933638  0.30206306  0.05743673    -0.75000
Al115      Al  0.99794926  0.33305200  0.04580327     1.49000
C116        C  0.03048893  0.27198122  0.04150341     0.92300
O117        O  0.91929184  0.19684236  0.06048787    -0.81200
O118        O  0.85999465  0.26668551  0.03035759    -0.74800
Al119      Al  0.93427089  0.23378232  0.02505171     1.90100
O120        O  0.87036551  0.21670612  0.07699042    -0.73900
O121        O  0.91279539  0.34246248  0.06066257    -0.73700
O122        O  0.92818132  0.29346759  0.10337935    -0.79400
O123        O  0.97581726  0.37239708  0.03435207    -0.77600
O124        O  0.94325589  0.28269788  0.04583049    -1.13700
O125        O  0.00910534  0.32937519  0.50384606    -0.72900
C126        C  0.98387559  0.30357167  0.48294627     0.97800
C127        C  0.88554197  0.18916635  0.07697860     0.94200
Al128      Al  0.89660916  0.28008112  0.06616735     1.55600
O129        O  0.99547871  0.24455178  0.02692651    -0.77500
C130        C  0.94332725  0.37534903  0.04572250     0.98400
C131        C  0.84940092  0.23198220  0.01436246     0.93300
O132        O  0.87135579  0.21107168  0.01648685    -0.82800
O133        O  0.72133827  0.01140039  0.42757589    -0.82300
C134        C  0.67029771  0.01910413  0.31297275     0.97100
O135        O  0.66059891  0.98873858  0.33298020    -0.71400
O136        O  0.68089531  0.95373688  0.37976697    -0.75000
Al137      Al  0.65740942  0.99396892  0.37492643     1.49000
C138        C  0.71983818  0.95796804  0.37716761     0.92300
O139        O  0.80488174  0.08590550  0.36683256    -0.81200
O140        O  0.74463227  0.13636066  0.38990218    -0.74800
Al141      Al  0.75803400  0.04818322  0.39475553     1.90100
O142        O  0.77284750  0.11306212  0.33739718    -0.73900
O143        O  0.66068791  0.09062324  0.37091907    -0.73700
O144        O  0.68799479  0.06127802  0.31976381    -0.79400
O145        O  0.61734096  0.01722217  0.36968279    -0.77600
O146        O  0.71091575  0.04646987  0.37504026    -1.13700
O147        O  0.65108583  0.99637734  0.41770851    -0.72900
C148        C  0.68081403  0.99825032  0.43597179     0.97800
C149        C  0.80703371  0.10983887  0.34448837     0.94200
Al150      Al  0.71618734  0.09583396  0.35612322     1.55600
O151        O  0.75457978  0.99704041  0.37450260    -0.77500
C152        C  0.62150025  0.05607192  0.37070669     0.98400
C153        C  0.76071353  0.13079515  0.41428571     0.93300
O154        O  0.76727311  0.09768581  0.41794938    -0.82800
O155        O  0.67857410  0.92924432  0.07072919    -0.82300
C156        C  0.64192916  0.95698318  0.18960733     0.97100
O157        O  0.64724753  0.98319689  0.16756948    -0.71400
O158        O  0.72009232  0.01511477  0.13495208    -0.75000
Al159      Al  0.65768340  0.98071607  0.12527664     1.49000
C160        C  0.75277679  0.01462535  0.12200275     0.92300
O161        O  0.71634774  0.90299697  0.14477407    -0.81200
O162        O  0.58719271  0.84457238  0.11432946    -0.74800
Al163      Al  0.69557473  0.91714622  0.10842014     1.90100
O164        O  0.64721168  0.85431791  0.16079871    -0.73900
O165        O  0.56436469  0.89729736  0.14503393    -0.73700
O166        O  0.63142221  0.91577356  0.18560615    -0.79400
O167        O  0.59554619  0.95631587  0.11522994    -0.77600
O168        O  0.65502682  0.92705057  0.12790490    -1.13700
O169        O  0.66871002  0.98686764  0.08235865    -0.72900
C170        C  0.67184893  0.96126333  0.06282672     0.97800
C171        C  0.68984081  0.86897951  0.16095637     0.94200
Al172      Al  0.61117405  0.88161983  0.14961195     1.55600
O173        O  0.74667756  0.97829287  0.11006381    -0.77500
C174        C  0.56113142  0.92625040  0.12903223     0.98400
C175        C  0.61097854  0.83484253  0.09726319     0.93300
O176        O  0.65377654  0.85402256  0.10050347    -0.82800
O177        O  0.06749806  0.72261676  0.23931664    -0.82300
C178        C  0.04430166  0.66055189  0.35906724     0.97100
O179        O  0.01743732  0.63916750  0.33758005    -0.71400
O180        O  0.98412935  0.68212631  0.30774709    -0.75000
Al181      Al  0.01700782  0.65298670  0.29584266     1.49000
C182        C  0.98322591  0.71309669  0.29262770     0.92300
O183        O  0.09437744  0.78897719  0.31254689    -0.81200
O184        O  0.15473063  0.72064247  0.28199622    -0.74800
Al185      Al  0.08014086  0.75340133  0.27664255     1.90100
O186        O  0.14373695  0.76955801  0.32875125    -0.73900
O187        O  0.10182900  0.64410637  0.31197324    -0.73700
O188        O  0.08478978  0.69206657  0.35404792    -0.79400
O189        O  0.04061906  0.61542676  0.28398182    -0.77600
O190        O  0.07124188  0.70390079  0.29676304    -1.13700
O191        O  0.00704864  0.65804255  0.25362820    -0.72900
C192        C  0.03218917  0.68507014  0.23303339     0.97800
C193        C  0.12821137  0.79677905  0.32892264     0.94200
Al194      Al  0.11755991  0.70636269  0.31748001     1.55600
O195        O  0.01869358  0.74190701  0.27881558    -0.77500
C196        C  0.07193532  0.61179049  0.29649936     1.00800
C197        C  0.16499477  0.75525817  0.26582099     0.93300
O198        O  0.14330236  0.77644440  0.26817463    -0.82800
O199        O  0.29186213  0.97781462  0.17712588    -0.82300
C200        C  0.34495340  0.96771571  0.06326903     0.97100
O201        O  0.35333973  0.99768259  0.08307508    -0.71400
O202        O  0.32992509  0.03211695  0.12757757    -0.75000
Al203      Al  0.35573490  0.99369398  0.12511759     1.49000
C204        C  0.29043920  0.02650555  0.12434123     0.92300
O205        O  0.20876372  0.89668957  0.12008568    -0.81200
O206        O  0.26818055  0.85017986  0.14060013    -0.74800
Al207      Al  0.25585712  0.93787525  0.14601483     1.90100
O208        O  0.24231998  0.87556339  0.08742161    -0.73900
O209        O  0.35330374  0.89698098  0.12276277    -0.73700
O210        O  0.32778924  0.92574046  0.07046819    -0.79400
O211        O  0.39607157  0.97064767  0.12196547    -0.77600
O212        O  0.30302538  0.94063927  0.12579074    -1.13700
O213        O  0.36228181  0.99377729  0.16812730    -0.72900
C214        C  0.33230088  0.99227897  0.18592035     0.97800
C215        C  0.20717663  0.87566209  0.09646361     0.94200
Al216      Al  0.29821013  0.89150135  0.10696022     1.55600
O217        O  0.25605501  0.98671563  0.12401852    -0.77500
C218        C  0.39229076  0.93193571  0.12378091     0.98400
C219        C  0.25527998  0.85665988  0.16602596     0.93300
O220        O  0.25081728  0.89086749  0.17072631    -0.82800
O221        O  0.73799333  0.65884889  0.15521185    -0.82300
C222        C  0.67713573  0.62210332  0.27417628     0.97100
O223        O  0.65443532  0.62638327  0.25282113    -0.71400
O224        O  0.69425711  0.69990786  0.22044438    -0.75000
Al225      Al  0.66633766  0.63775355  0.21010893     1.49000
C226        C  0.72637930  0.73262728  0.20668930     0.92300
O227        O  0.80219868  0.69734323  0.22817926    -0.81200
O228        O  0.73239441  0.56836701  0.19651645    -0.74800
Al229      Al  0.76746373  0.67640732  0.19211851     1.90100
O230        O  0.78396638  0.62823523  0.24317887    -0.73900
O231        O  0.65679204  0.54455086  0.22875757    -0.73700
O232        O  0.70750877  0.61166970  0.26891369    -0.79400
O233        O  0.62867649  0.57602266  0.19964554    -0.77600
O234        O  0.71752474  0.63538861  0.21173436    -1.13700
O235        O  0.67075272  0.64984928  0.16686540    -0.72900
C236        C  0.69983426  0.65327183  0.14728647     0.97800
C237        C  0.81074595  0.67121132  0.24383399     0.94200
Al238      Al  0.71997742  0.59157742  0.23259849     1.55600
O239        O  0.75636815  0.72686105  0.19392516    -0.77500
C240        C  0.62410407  0.54159924  0.21341625     0.98400
C241        C  0.76621469  0.59279773  0.17960826     0.93300
O242        O  0.78991323  0.63547792  0.18362641    -0.82800
O243        O  0.94854299  0.65908628  0.10111864    -0.82300
C244        C  0.97449319  0.62724057  0.48081121     0.97100
O245        O  0.00123447  0.63277076  0.50240213    -0.71400
O246        O  0.03407706  0.70750287  0.03422136    -0.75000
Al247      Al  0.00112918  0.64444045  0.04413087     1.49000
C248        C  0.03430751  0.73835310  0.05001501     0.92300
O249        O  0.92404955  0.70398941  0.02935434    -0.81200
O250        O  0.86354959  0.57311942  0.05678032    -0.74800
Al251      Al  0.93710291  0.67993078  0.06453584     1.90100
O252        O  0.87563017  0.63604861  0.01122206    -0.73900
O253        O  0.91623012  0.55116719  0.02604123    -0.73700
O254        O  0.93387477  0.61795838  0.48558898    -0.79400
O255        O  0.97778840  0.58205904  0.05377546    -0.77600
O256        O  0.94684604  0.64084053  0.04320838    -1.13700
O257        O  0.00950883  0.65617937  0.08688276    -0.72900
C258        C  0.98389953  0.65709642  0.10746678     0.97800
C259        C  0.89131631  0.67889824  0.01194335     0.94200
Al260      Al  0.90104414  0.59808670  0.02158405     1.55600
O261        O  0.99854492  0.73034980  0.06388856    -0.77500
C262        C  0.94600870  0.54773656  0.04092271     0.98400
C263        C  0.85314754  0.59609069  0.07402207     0.93300
O264        O  0.87347414  0.63904084  0.07188127    -0.82800
C265        C  0.77724182  0.57389133  0.15325281    -0.06000
C266        C  0.75759629  0.57484175  0.12558510    -0.33400
C267        C  0.77922150  0.57609239  0.09837082     0.35900
C268        C  0.82011983  0.57488056  0.09871340    -0.06300
C269        C  0.83649515  0.56806854  0.12615084    -0.33300
C270        C  0.81590648  0.56862502  0.15344757     0.35800
H271        H  0.72835905  0.57984084  0.12515433     0.16100
O272        O  0.76336287  0.58412306  0.07194111    -0.60800
H273        H  0.86835244  0.56773548  0.12659773     0.16100
O274        O  0.83698027  0.56967757  0.18007514    -0.60900
H275        H  0.81904839  0.53833298  0.18846144     0.43100
H276        H  0.73844562  0.55372640  0.06539458     0.43100
C277        C  0.07799646  0.78150897  0.05583870    -0.06000
C278        C  0.07980344  0.81014565  0.07937742    -0.33400
C279        C  0.12166188  0.84335019  0.09148691     0.35900
C280        C  0.16306683  0.84844266  0.08019309    -0.06300
C281        C  0.16135518  0.82330595  0.05455880    -0.33300
C282        C  0.11945666  0.79010162  0.04242768     0.35800
H283        H  0.04860167  0.80479924  0.08994839     0.16100
O284        O  0.12123477  0.86817981  0.11574382    -0.60800
H285        H  0.19258214  0.82746955  0.04477923     0.16100
O286        O  0.11960327  0.76496967  0.01825695    -0.60900
H287        H  0.12621056  0.74174896  0.02679223     0.43100
H288        H  0.12566369  0.89720654  0.10709333     0.43100
C289        C  0.24464753  0.82473457  0.19152362    -0.06000
C290        C  0.21210264  0.77821957  0.18848640    -0.33400
C291        C  0.19063799  0.75155181  0.21419346     0.35900
C292        C  0.20105550  0.77189491  0.24288163    -0.06300
C293        C  0.23779262  0.81642156  0.24604408    -0.33300
C294        C  0.25976063  0.84281741  0.22059945     0.35800
H295        H  0.20015543  0.76378563  0.16632430     0.16100
O296        O  0.15528734  0.70759300  0.21086252    -0.60800
H297        H  0.24616056  0.83242008  0.26804701     0.16100
O298        O  0.29370085  0.88746389  0.22422742    -0.60900
H299        H  0.27794077  0.90416055  0.23055960     0.43100
H300        H  0.17002796  0.68907925  0.20709644     0.43100
C301        C  0.02722951  0.64923074  0.39039383    -0.06000
C302        C  0.97994027  0.62230020  0.39558417    -0.33400
C303        C  0.96215032  0.61428807  0.42484460     0.35900
C304        C  0.99185142  0.63279144  0.44963775    -0.06300
C305        C  0.03922078  0.65804861  0.44452734    -0.33300
C306        C  0.05697286  0.66665651  0.41529250     0.35800
H307        H  0.95634573  0.60819324  0.37687377     0.16100
O308        O  0.91583214  0.58739575  0.42895305    -0.60800
H309        H  0.06275073  0.67233427  0.46326020     0.16100
O310        O  0.10346796  0.69191715  0.41144542    -0.60900
H311        H  0.11110353  0.72428056  0.41261627     0.43100
H312        H  0.90271709  0.60647669  0.42243143     0.43100
C313        C  0.99648685  0.65885326  0.13948588    -0.06000
C314        C  0.96217885  0.64339526  0.16164958    -0.33400
C315        C  0.97325372  0.65008150  0.19225285     0.35900
C316        C  0.01941842  0.67350192  0.20115945    -0.06300
C317        C  0.05370849  0.68846457  0.17905857    -0.33300
C318        C  0.04262360  0.68064305  0.14848022     0.35800
H319        H  0.92660523  0.62725466  0.15523748     0.16100
O320        O  0.93872607  0.63554680  0.21312416    -0.60800
H321        H  0.08930478  0.70718348  0.18542310     0.16100
O322        O  0.07725065  0.69634207  0.12761288    -0.60900
H323        H  0.08416028  0.72774240  0.12244170     0.43100
H324        H  0.93360715  0.66174662  0.21590128     0.43100
C325        C  0.93900332  0.71135071  0.28687977    -0.06000
C326        C  0.93667191  0.73783887  0.26315509    -0.33400
C327        C  0.89472057  0.72729084  0.25025336     0.35900
C328        C  0.85389890  0.68983474  0.26115114    -0.06300
C329        C  0.85569759  0.66637996  0.28681446    -0.33300
C330        C  0.89769894  0.67692088  0.29976511     0.35800
H331        H  0.96768674  0.76445368  0.25273183     0.16100
O332        O  0.89467872  0.75052289  0.22488075    -0.60800
H333        H  0.82452772  0.63813932  0.29595580     0.16100
O334        O  0.89795454  0.65184524  0.32406676    -0.60900
H335        H  0.89263642  0.62246822  0.31562171     0.43100
H336        H  0.89371147  0.77763259  0.23241133     0.43100
C337        C  0.51753512  0.92674513  0.12760265    -0.06000
C338        C  0.47518409  0.88620671  0.13077998    -0.33400
C339        C  0.43394318  0.88695138  0.12998296     0.35900
C340        C  0.43462721  0.92881310  0.12619301    -0.06300
C341        C  0.47723644  0.96926621  0.12382986    -0.33300
C342        C  0.51811946  0.96849730  0.12441026     0.35800
H343        H  0.47402649  0.85380905  0.13362797     0.16100
O344        O  0.39337589  0.84655454  0.13264075    -0.60800
H345        H  0.47916760  0.00207032  0.12132504     0.16100
O346        O  0.55865288  0.00923007  0.12327667    -0.60900
H347        H  0.56519941  0.01624352  0.10151458     0.43100
H348        H  0.38652887  0.84278095  0.15453454     0.43100
C349        C  0.70697859  0.84293221  0.17835717    -0.06000
C350        C  0.67926344  0.81289201  0.20118985    -0.33400
C351        C  0.68813172  0.77985371  0.21324593     0.35900
C352        C  0.72510166  0.77567606  0.20217641    -0.06300
C353        C  0.75564891  0.80891836  0.18174441    -0.33300
C354        C  0.74686177  0.84229562  0.16983334     0.35800
H355        H  0.64891464  0.81325627  0.20861387     0.16100
O356        O  0.65793323  0.74941838  0.23392265    -0.60800
H357        H  0.78460176  0.80699076  0.17312114     0.16100
O358        O  0.77573045  0.87180031  0.14826592    -0.60900
H359        H  0.76447027  0.85535602  0.12889122     0.43100
H360        H  0.67237377  0.76116819  0.25381878     0.43100
C361        C  0.64778960  0.97457825  0.22065586    -0.06000
C362        C  0.62100301  0.94482593  0.24375043    -0.33400
C363        C  0.62686357  0.95950581  0.27361905     0.35900
C364        C  0.66082776  0.00452846  0.28109111    -0.06300
C365        C  0.68699395  0.03474386  0.25787105    -0.33300
C366        C  0.68054619  0.02013469  0.22779549     0.35800
H367        H  0.59518460  0.90992706  0.23860256     0.16100
O368        O  0.59917238  0.92931721  0.29533646    -0.60800
H369        H  0.71344227  0.06934239  0.26311431     0.16100
O370        O  0.70834917  0.04976544  0.20587353    -0.60900
H371        H  0.69352919  0.06749165  0.19982350     0.43100
H372        H  0.57426380  0.93633082  0.29835962     0.43100
C373        C  0.66938898  0.98345743  0.46743183    -0.06000
C374        C  0.65835607  0.00824665  0.48762668    -0.33400
C375        C  0.65823324  0.00176316  0.01900323     0.35900
C376        C  0.66836718  0.96857115  0.03010313    -0.06300
C377        C  0.67612540  0.94183667  0.00931303    -0.33300
C378        C  0.67778954  0.94939034  0.47843742     0.35800
H379        H  0.65256932  0.03509361  0.47933741     0.16100
O380        O  0.65029795  0.02862622  0.03829949    -0.60800
H381        H  0.68364906  0.91585932  0.01695224     0.16100
O382        O  0.68912912  0.92497375  0.45915717    -0.60900
H383        H  0.65964614  0.90052232  0.45098793     0.43100
H384        H  0.61675533  0.01184606  0.04163710     0.43100
C385        C  0.94251982  0.41871107  0.04288720    -0.06000
C386        C  0.98364763  0.45965802  0.03737579    -0.33400
C387        C  0.98507365  0.50172071  0.03708242     0.35900
C388        C  0.94489180  0.50355050  0.04199883    -0.06300
C389        C  0.90344051  0.46270215  0.04649083    -0.33300
C390        C  0.90209223  0.42055081  0.04733547     0.35800
H391        H  0.01517563  0.45927546  0.03394557     0.16100
O392        O  0.02514149  0.54014348  0.53262264    -0.60800
H393        H  0.87215657  0.46357250  0.04989972     0.16100
O394        O  0.86117185  0.38153145  0.05283749    -0.60900
H395        H  0.84734550  0.37046954  0.03269819     0.43100
H396        H  0.02544173  0.54671792  0.51079271     0.43100
C397        C  0.81238489  0.21203510  0.49256519    -0.06000
C398        C  0.82017459  0.23423177  0.46455167    -0.33400
C399        C  0.80015939  0.20894369  0.43821414     0.35900
C400        C  0.77106267  0.16137805  0.44030420    -0.06300
C401        C  0.75819711  0.14078065  0.46888607    -0.33300
C402        C  0.77867456  0.16572175  0.49489622     0.35800
H403        H  0.84584831  0.27002092  0.46267148     0.16100
O404        O  0.81413645  0.22972794  0.41060551    -0.60800
H405        H  0.73538672  0.10418769  0.47086292     0.16100
O406        O  0.76803188  0.14668430  0.02225378    -0.60900
H407        H  0.74291291  0.15024821  0.03086460     0.43100
H408        H  0.79449696  0.24314866  0.40647442     0.43100
C409        C  0.79606707  0.05877673  0.11753161    -0.06000
C410        C  0.79872349  0.09864229  0.12919441    -0.33400
C411        C  0.82984012  0.14170550  0.11758578     0.35900
C412        C  0.86042495  0.14599220  0.09448753    -0.06300
C413        C  0.86197316  0.10690252  0.08563111    -0.33300
C414        C  0.82990858  0.06343904  0.09680604     0.35800
H415        H  0.77399698  0.09639065  0.14565950     0.16100
O416        O  0.82868079  0.17921754  0.12816862    -0.60800
H417        H  0.88570529  0.10943824  0.06829067     0.16100
O418        O  0.83036836  0.02573684  0.08593912    -0.60900
H419        H  0.81441720  0.01907092  0.06625720     0.43100
H420        H  0.80171835  0.17808165  0.11843022     0.43100
C421        C  0.65559552  0.65005804  0.36579486    -0.06000
C422        C  0.68126971  0.62877646  0.35969815    -0.33400
C423        C  0.68798766  0.61899942  0.33024816     0.35900
C424        C  0.66884586  0.63041287  0.30578333    -0.06300
C425        C  0.64345692  0.65210703  0.31176309    -0.33300
C426        C  0.63713740  0.66234388  0.34136663     0.35800
H427        H  0.69628942  0.61932894  0.37790030     0.16100
O428        O  0.71380520  0.59860522  0.32581152    -0.60800
H429        H  0.62917382  0.66208829  0.29339066     0.16100
O430        O  0.61327353  0.68473775  0.34598403    -0.60900
H431        H  0.63679347  0.71767589  0.34656571     0.43100
H432        H  0.69167157  0.56526612  0.32613194     0.43100
C433        C  0.67575344  0.65473341  0.05217191    -0.06000
C434        C  0.71853257  0.66444478  0.06272571    -0.33400
C435        C  0.72641863  0.66344598  0.09336511     0.35900
C436        C  0.69072477  0.65202279  0.11446352    -0.06300
C437        C  0.64711387  0.64059764  0.10365926    -0.33300
C438        C  0.63949771  0.64182505  0.07261283     0.35800
H439        H  0.74680161  0.67504904  0.04710252     0.16100
O440        O  0.76984936  0.67536431  0.10228622    -0.60800
H441        H  0.61925242  0.63179411  0.11927330     0.16100
O442        O  0.59764422  0.63361764  0.06273663    -0.60900
H443        H  0.58142990  0.60127036  0.05617051     0.43100
H444        H  0.78611206  0.70909129  0.10466229     0.43100
C445        C  0.70768458  0.83544832  0.41078489    -0.06000
C446        C  0.68409391  0.83442864  0.38438137    -0.33400
C447        C  0.69143085  0.87489278  0.37075491     0.35900
C448        C  0.72397363  0.91731013  0.38273297    -0.06300
C449        C  0.75149043  0.91850682  0.40678887    -0.33300
C450        C  0.74337321  0.87802526  0.42101964     0.35800
H451        H  0.65729090  0.80227204  0.37546956     0.16100
O452        O  0.66482587  0.87276817  0.34677476    -0.60800
H453        H  0.77606493  0.95098319  0.41664506     0.16100
O454        O  0.76772046  0.88097900  0.44645032    -0.60900
H455        H  0.79379644  0.87781182  0.43925006     0.43100
H456        H  0.63502505  0.86589527  0.35567129     0.43100
C457        C  0.59678252  0.76056338  0.01934822    -0.06000
C458        C  0.58842714  0.73837214  0.04738831    -0.33400
C459        C  0.58564988  0.75966724  0.07359698     0.35900
C460        C  0.59108877  0.80354407  0.07178490    -0.06300
C461        C  0.59349958  0.82307430  0.04335519    -0.33300
C462        C  0.59649091  0.80183463  0.01708755     0.35800
H463        H  0.58903071  0.70674805  0.04935007     0.16100
O464        O  0.58388887  0.74018356  0.10107578    -0.60800
H465        H  0.59862656  0.85732793  0.04179044     0.16100
O466        O  0.60718061  0.82506107  0.49073783    -0.60900
H467        H  0.57735804  0.81719814  0.48165701     0.43100
H468        H  0.55098256  0.72308204  0.10649949     0.43100
C469        C  0.80289790  0.71773125  0.46924924    -0.06000
C470        C  0.81147517  0.68524373  0.45593797    -0.33400
C471        C  0.84372230  0.67558060  0.46819003     0.35900
C472        C  0.86792397  0.69802365  0.99384695    -0.06300
C473        C  0.86325815  0.73432974  0.00504501    -0.33300
C474        C  0.83062916  0.74387931  0.99271629     0.35800
H475        H  0.79024838  0.66445245  0.43751342     0.16100
O476        O  0.84874956  0.64135513  0.45562939    -0.60800
H477        H  0.88174080  0.75247406  0.02505276     0.16100
O478        O  0.82302166  0.77585904  0.00631349    -0.60900
H479        H  0.80054027  0.75914789  0.02257393     0.43100
H480        H  0.87839695  0.65727584  0.44479204     0.43100
C481        C  0.49352518  0.41652430  0.21171715    -0.06000
C482        C  0.49610662  0.45893020  0.20829706    -0.33400
C483        C  0.53837760  0.49951361  0.20820880     0.35900
C484        C  0.57926222  0.49843783  0.21257217    -0.06300
C485        C  0.57646821  0.45595180  0.21716128    -0.33300
C486        C  0.53406425  0.41516931  0.21635463     0.35800
H487        H  0.46526302  0.46055433  0.20463192     0.16100
O488        O  0.53911692  0.54019350  0.20463736    -0.60800
H489        H  0.60726307  0.45428892  0.22086274     0.16100
O490        O  0.53260558  0.37417685  0.22006873    -0.60900
H491        H  0.52609101  0.36669181  0.24179134     0.43100
H492        H  0.53838365  0.54429861  0.18253004     0.43100
C493        C  0.28591244  0.06766050  0.12575346    -0.06000
C494        C  0.25417751  0.06817329  0.14591576    -0.33400
C495        C  0.26206296  0.10945291  0.15869229     0.35900
C496        C  0.30223365  0.15071525  0.15127924    -0.06300
C497        C  0.32993908  0.15059002  0.12772356    -0.33300
C498        C  0.32190572  0.10954355  0.11489928     0.35800
H499        H  0.22630730  0.03629870  0.15454450     0.16100
O500        O  0.23348126  0.10809662  0.18109431    -0.60800
H501        H  0.36019097  0.18204745  0.12092647     0.16100
O502        O  0.35277005  0.11041062  0.09445127    -0.60900
H503        H  0.33691887  0.10362003  0.07473041     0.43100
H504        H  0.20972609  0.11190661  0.17061802     0.43100
C505        C  0.49866153  0.06579627  0.37334471    -0.06000
C506        C  0.49933714  0.02934838  0.35869101    -0.33400
C507        C  0.53910722  0.02648730  0.35735428     0.35900
C508        C  0.57980165  0.06033938  0.37093836    -0.06300
C509        C  0.57995104  0.09788253  0.38458936    -0.33300
C510        C  0.53986757  0.10075862  0.38594382     0.35800
H511        H  0.46854269  0.00214776  0.34856329     0.16100
O512        O  0.53764906  0.99016515  0.34261976    -0.60800
H513        H  0.61094909  0.12455199  0.39486049     0.16100
O514        O  0.54130267  0.13733854  0.40025475    -0.60900
H515        H  0.54625425  0.15954935  0.38399583     0.43100
H516        H  0.54571811  0.00039603  0.32140625     0.43100
C517        C  0.41656057  0.22101809  0.26339006    -0.06000
C518        C  0.41838162  0.18058527  0.26437005    -0.33400
C519        C  0.42041606  0.16171504  0.29208789     0.35900
C520        C  0.41767172  0.18177716  0.31925377    -0.06300
C521        C  0.41945543  0.22406227  0.31820396    -0.33300
C522        C  0.42037839  0.24443132  0.29043733     0.35800
H523        H  0.41497983  0.16197619  0.24378201     0.16100
O524        O  0.41951734  0.12075748  0.29233668    -0.60800
H525        H  0.41679906  0.23964775  0.33883133     0.16100
O526        O  0.41924355  0.28439613  0.29011222    -0.60900
H527        H  0.45067430  0.30848626  0.28457139     0.43100
H528        H  0.45075061  0.12820434  0.29833218     0.43100
C529        C  0.15322954  0.84007760  0.34610944    -0.06000
C530        C  0.15348103  0.87945459  0.33569076    -0.33400
C531        C  0.18589058  0.92291784  0.34631010     0.35900
C532        C  0.21850770  0.92746545  0.36802488    -0.06300
C533        C  0.21428834  0.88756298  0.38104937    -0.33300
C534        C  0.18237085  0.84427254  0.37014612     0.35800
H535        H  0.13099420  0.87703242  0.31751100     0.16100
O536        O  0.18721233  0.96068817  0.33376590    -0.60800
H537        H  0.23807438  0.88987097  0.39826578     0.16100
O538        O  0.18101407  0.80634182  0.38248651    -0.60900
H539        H  0.20779219  0.80569515  0.37394369     0.43100
H540        H  0.20395978  0.96594896  0.31443009     0.43100
C541        C  0.34223701  0.00757637  0.21741947    -0.06000
C542        C  0.31745620  0.02664665  0.22975574    -0.33400
C543        C  0.31653918  0.03261574  0.26060248     0.35900
C544        C  0.34154791  0.02032069  0.28009602    -0.06300
C545        C  0.36824539  0.00311566  0.26777634    -0.33300
C546        C  0.36906844  0.99712845  0.23646122     0.35800
H547        H  0.29677777  0.03513476  0.21542119     0.16100
O548        O  0.28952730  0.04898901  0.27148955    -0.60800
H549        H  0.38821795  0.99416037  0.28240570     0.16100
O550        O  0.39354376  0.97828052  0.22504761    -0.60900
H551        H  0.42319041  0.00469261  0.21859945     0.43100
H552        H  0.25944089  0.02143363  0.27564383     0.43100
C553        C  0.36909008  0.01323239  0.47027904    -0.06000
C554        C  0.39038991  0.04435094  0.49380623    -0.33400
C555        C  0.38394223  0.02948713  0.02394347     0.35900
C556        C  0.35525455  0.98277365  0.03124896    -0.06300
C557        C  0.33492540  0.95126187  0.00763214    -0.33300
C558        C  0.34197304  0.96623024  0.47728336     0.35800
H559        H  0.41213032  0.08046035  0.48899062     0.16100
O560        O  0.40684062  0.06136150  0.04593900    -0.60800
H561        H  0.31271104  0.91527714  0.01258183     0.16100
O562        O  0.31997096  0.93463856  0.45500338    -0.60900
H563        H  0.34055328  0.92256917  0.45009625     0.43100
H564        H  0.38986085  0.07802475  0.04834228     0.43100
C565        C  0.07141877  0.48448491  0.29409358    -0.06000
C566        C  0.03039270  0.48506924  0.29665057    -0.33400
C567        C  0.03027897  0.52632403  0.29638324     0.35900
C568        C  0.07180965  0.56817734  0.29457955    -0.06300
C569        C  0.11304859  0.56781823  0.29269051    -0.33300
C570        C  0.11300994  0.52632829  0.29176166     0.35800
H571        H  0.99806236  0.45330373  0.29816413     0.16100
O572        O  0.98942498  0.52538860  0.29923712    -0.60800
H573        H  0.14527882  0.59973596  0.29153433     0.16100
O574        O  0.15383258  0.52708451  0.28948084    -0.60900
H575        H  0.16083862  0.52998345  0.26759825     0.43100
H576        H  0.97759271  0.52209814  0.27839792     0.43100
C577        C  0.21405475  0.27075129  0.21921535    -0.06000
C578        C  0.20710238  0.30427188  0.20548074    -0.33400
C579        C  0.17542945  0.31526427  0.21720492     0.35900
C580        C  0.14945905  0.29226913  0.24292944    -0.06300
C581        C  0.15265643  0.25540407  0.25465247    -0.33300
C582        C  0.18500640  0.24490817  0.24332873     0.35800
H583        H  0.22859330  0.32442363  0.18686569     0.16100
O584        O  0.17231685  0.35060565  0.20447418    -0.60800
H585        H  0.13291793  0.23719266  0.27437459     0.16100
O586        O  0.19029993  0.21186166  0.25768326    -0.60900
H587        H  0.21093498  0.22760179  0.27492748     0.43100
H588        H  0.14729351  0.33599025  0.18953321     0.43100
C589        C  0.02394765  0.32883629  0.39040036    -0.06000
C590        C  0.97932493  0.31692495  0.39881252    -0.33400
C591        C  0.96599171  0.30931267  0.42901770     0.35900
C592        C  0.99794805  0.31593182  0.45149776    -0.06300
C593        C  0.04314535  0.33027504  0.44343988    -0.33300
C594        C  0.05598077  0.33535587  0.41314483     0.35800
H595        H  0.95389971  0.31105036  0.38186612     0.16100
O596        O  0.92145837  0.29482056  0.43631795    -0.60800
H597        H  0.06788833  0.33468720  0.46057187     0.16100
O598        O  0.09950920  0.34538568  0.40615059    -0.60900
H599        H  0.09876905  0.31566139  0.40677737     0.43100
H600        H  0.90511498  0.26130498  0.43300743     0.43100
C601        C  0.01991607  0.35327134  0.19996092    -0.06000
C602        C  0.97274797  0.32568140  0.19478188    -0.33400
C603        C  0.95522364  0.31661327  0.16541165     0.35900
C604        C  0.98503893  0.33542295  0.14048801    -0.06300
C605        C  0.03195891  0.36448074  0.14586243    -0.33300
C606        C  0.04944203  0.37323098  0.17513368     0.35800
H607        H  0.94939108  0.31001628  0.21354021     0.16100
O608        O  0.90909445  0.28845929  0.16145691    -0.60800
H609        H  0.05566310  0.37990252  0.12725636     0.16100
O610        O  0.09544820  0.40209357  0.17917785    -0.60900
H611        H  0.10964144  0.38302820  0.17573356     0.43100
H612        H  0.89609534  0.30902404  0.16167241     0.43100
C613        C  0.93828726  0.20499645  0.30588328    -0.06000
C614        C  0.89789535  0.19919912  0.29274288    -0.33400
C615        C  0.85480352  0.16599352  0.30344751     0.35900
C616        C  0.85111700  0.13737073  0.32785547    -0.06300
C617        C  0.89137977  0.13971384  0.33868507    -0.33300
C618        C  0.93457177  0.17286911  0.32781341     0.35800
H619        H  0.89949950  0.22249498  0.27532976     0.16100
O620        O  0.81661427  0.16324119  0.29057999    -0.60800
H621        H  0.88970126  0.11755779  0.35693158     0.16100
O622        O  0.97279362  0.17561210  0.34056995    -0.60900
H623        H  0.98216720  0.15897720  0.32654447     0.43100
H624        H  0.81371279  0.18838139  0.29973037     0.43100
C625        C  0.43166074  0.48411818  0.45567404    -0.06000
C626        C  0.43493992  0.52467196  0.46670318    -0.33400
C627        C  0.47683755  0.56592673  0.46658788     0.35900
C628        C  0.51636190  0.56716805  0.45520966    -0.06300
C629        C  0.51280935  0.52683908  0.44377853    -0.33300
C630        C  0.47127594  0.48574621  0.44402501     0.35800
H631        H  0.40453777  0.52523830  0.97594593     0.16100
O632        O  0.47822965  0.60554538  0.97784977    -0.60800
H633        H  0.54259300  0.52692658  0.43468130     0.16100
O634        O  0.47028139  0.44722676  0.43335872    -0.60900
H635        H  0.47711898  0.43369667  0.45109054     0.43100
H636        H  0.48599826  0.60643741  0.99949526     0.43100
C637        C  0.16133132  0.29640509  0.51128052    -0.06000
C638        C  0.12107439  0.25547822  0.00294573    -0.33400
C639        C  0.07846898  0.24390618  0.01544846     0.35900
C640        C  0.07481967  0.27376894  0.03606528    -0.06300
C641        C  0.11524055  0.31173757  0.04654762    -0.33300
C642        C  0.15770310  0.32320662  0.03411353     0.35800
H643        H  0.12256433  0.23386542  0.98553561     0.16100
O644        O  0.04032465  0.20533835  0.00536373    -0.60800
H645        H  0.11376929  0.33483417  0.06278059     0.16100
O646        O  0.19665019  0.36226246  0.54416704    -0.60900
H647        H  0.21082343  0.35186054  0.05828159     0.43100
H648        H  0.03442573  0.18142364  0.02056934     0.43100
C649        C  0.23927272  0.41087471  0.40021835    -0.06000
C650        C  0.20385203  0.42102661  0.40119249    -0.33400
C651        C  0.18324933  0.42381975  0.37436026     0.35900
C652        C  0.19682563  0.41421719  0.34659735    -0.06300
C653        C  0.23577589  0.41000134  0.34548171    -0.33300
C654        C  0.25721347  0.40858696  0.37210388     0.35800
H655        H  0.18958528  0.42276349  0.42268088     0.16100
O656        O  0.14580299  0.42936893  0.37587995    -0.60800
H657        H  0.24658092  0.40272982  0.32422132     0.16100
O658        O  0.29280777  0.40021199  0.37061427    -0.60900
H659        H  0.28065382  0.37102556  0.35946348     0.43100
H660        H  0.15620514  0.46033795  0.36760927     0.43100
C661        C  0.34897974  0.35628880  0.05327084    -0.06000
C662        C  0.34165804  0.37881982  0.07724347    -0.33400
C663        C  0.35008270  0.37139903  0.10705442     0.35900
C664        C  0.36489794  0.33987936  0.11342967    -0.06300
C665        C  0.37266782  0.31784689  0.08925387    -0.33300
C666        C  0.36529042  0.32609846  0.05949530     0.35800
H667        H  0.32943489  0.40239679  0.07285526     0.16100
O668        O  0.34259194  0.39439012  0.12969361    -0.60800
H669        H  0.38388016  0.29339797  0.09333079     0.16100
O670        O  0.37156532  0.30230909  0.03680849    -0.60900
H671        H  0.40485886  0.31934518  0.03252910     0.43100
H672        H  0.37254550  0.42248010  0.13291892     0.43100
C673        C  0.33273726  0.30345467  0.30348060    -0.06000
C674        C  0.30813796  0.26552078  0.32254894    -0.33400
C675        C  0.30252881  0.27141323  0.35303832     0.35900
C676        C  0.32253498  0.31556471  0.36513566    -0.06300
C677        C  0.34900943  0.35355903  0.34664612    -0.33300
C678        C  0.35330348  0.34782121  0.31575786     0.35800
H679        H  0.29186790  0.23109897  0.31362254     0.16100
O680        O  0.27651879  0.23381709  0.37076369    -0.60800
H681        H  0.36491324  0.38772894  0.35594056     0.16100
O682        O  0.37805968  0.38563034  0.29792689    -0.60900
H683        H  0.35650157  0.39633727  0.29253073     0.43100
H684        H  0.29818573  0.22451236  0.37848753     0.43100
C685        C  0.28401526  0.20439685  0.45533573    -0.06000
C686        C  0.25494455  0.17326091  0.43349401    -0.33400
C687        C  0.26430737  0.14085599  0.42093006     0.35900
C688        C  0.30316396  0.13898238  0.43033206    -0.06300
C689        C  0.32819241  0.16550530  0.45509292    -0.33300
C690        C  0.31873797  0.19782417  0.46773361     0.35800
H691        H  0.22752272  0.17691536  0.42383457     0.16100
O692        O  0.23847345  0.11525362  0.39707272    -0.60800
H693        H  0.35710450  0.16327040  0.46347742     0.16100
O694        O  0.34524071  0.22442589  0.49108123    -0.60900
H695        H  0.37485230  0.24697346  0.48183124     0.43100
H696        H  0.21469766  0.08601735  0.40609369     0.43100
O697        O  0.27566181  0.31855344  0.90278458    -0.82300
C698        C  0.33874720  0.36288382  0.52181541     0.97100
O699        O  0.36092110  0.35886305  0.50016633    -0.71400
O700        O  0.31911603  0.28261205  0.97084607    -0.75000
Al701      Al  0.34703586  0.34463422  0.95867349     1.49000
C702        C  0.28531216  0.24933062  0.95861787     0.92300
O703        O  0.20964384  0.28716262  0.97630810    -0.81200
O704        O  0.28178335  0.41487347  0.94427208    -0.74800
Al705      Al  0.24577204  0.30567825  0.94044178     1.90100
O706        O  0.23021913  0.35654768  0.99091182    -0.73900
O707        O  0.35650293  0.43753562  0.97600530    -0.73700
O708        O  0.30705851  0.37171783  0.51713203    -0.79400
O709        O  0.38320715  0.40592259  0.94591737    -0.77600
O710        O  0.29571338  0.34696658  0.95981862    -1.13700
O711        O  0.34269670  0.32908880  0.91682454    -0.72900
C712        C  0.31391384  0.32263890  0.89654096     0.97800
C713        C  0.20267671  0.31397903  0.99219035     0.94200
Al714      Al  0.29372991  0.39144385  0.98036709     1.55600
O715        O  0.25533271  0.25509935  0.94581237    -0.77500
C716        C  0.38792882  0.44070754  0.95923744     0.98400
C717        C  0.24939659  0.39110412  0.92635497     0.93300
O718        O  0.22602053  0.34805663  0.92920695    -0.82800
O719        O  0.07017498  0.32703974  0.85051680    -0.82300
C720        C  0.03839284  0.35950557  0.73100746     0.97100
O721        O  0.01240523  0.35402852  0.75315936    -0.71400
O722        O  0.98186655  0.28011428  0.78570882    -0.75000
Al723      Al  0.01533768  0.34310994  0.79537722     1.49000
C724        C  0.98237820  0.24877458  0.80068042     0.92300
O725        O  0.09240456  0.28493904  0.77732636    -0.81200
O726        O  0.15243246  0.41527231  0.80520326    -0.74800
Al727      Al  0.08038886  0.30764418  0.81327692     1.90100
O728        O  0.14050105  0.35327849  0.75939630    -0.73900
O729        O  0.09857580  0.43626210  0.77558164    -0.73700
O730        O  0.07933242  0.36930298  0.73498984    -0.79400
O731        O  0.03929708  0.40545397  0.80538032    -0.77600
O732        O  0.06946825  0.34682180  0.79292744    -1.13700
O733        O  0.00932602  0.33123686  0.83811898    -0.72900
C734        C  0.03563565  0.32970547  0.85793307     0.97800
C735        C  0.12521530  0.31053868  0.76002165     0.94200
Al736      Al  0.11416430  0.39001934  0.77060105     1.55600
O737        O  0.01884949  0.25645764  0.81341861    -0.77500
C738        C  0.07042297  0.43991574  0.79206371     0.98400
C739        C  0.16360953  0.39250453  0.82212607     0.93300
O740        O  0.14416303  0.34955959  0.81973379    -0.82800
O741        O  0.33452436  0.05933776  0.82123159    -0.82300
C742        C  0.37406596  0.03073930  0.93911797     0.97100
O743        O  0.36871306  0.00487408  0.91694953    -0.71400
O744        O  0.29476234  0.97172298  0.88499610    -0.75000
Al745      Al  0.35716046  0.00751078  0.87467815     1.49000
C746        C  0.26183972  0.97180886  0.87205894     0.92300
O747        O  0.29598552  0.08182657  0.89554282    -0.81200
O748        O  0.42460546  0.14395888  0.86317184    -0.74800
Al749      Al  0.31716717  0.06978959  0.85887130     1.90100
O750        O  0.36485025  0.13186461  0.91118012    -0.73900
O751        O  0.45011015  0.09236307  0.89312798    -0.73700
O752        O  0.38379562  0.07179633  0.93506866    -0.79400
O753        O  0.41915733  0.03327340  0.86375951    -0.77600
O754        O  0.35865696  0.06064273  0.87767987    -1.13700
O755        O  0.34531006  0.00171781  0.83172784    -0.72900
C756        C  0.34092928  0.02745421  0.81277787     0.97800
C757        C  0.32191114  0.11561272  0.91186969     0.94200
Al758      Al  0.40230755  0.10643332  0.89889266     1.55600
O759        O  0.26739803  0.00812688  0.86028138    -0.77500
C760        C  0.45388577  0.06431209  0.87659217     0.98400
C761        C  0.39990048  0.15320391  0.84656011     0.93300
O762        O  0.35734294  0.13380387  0.85110868    -0.82800
O763        O  0.33143113  0.25867797  0.76301448    -0.82300
C764        C  0.37066303  0.32770880  0.64458206     0.97100
O765        O  0.36346014  0.34707067  0.66662658    -0.71400
O766        O  0.28905280  0.30349846  0.69855432    -0.75000
Al767      Al  0.35181746  0.33277802  0.70876465     1.49000
C768        C  0.25742655  0.27058738  0.71266250     0.92300
O769        O  0.29445606  0.19815766  0.68806309    -0.81200
O770        O  0.42264642  0.26698182  0.72053882    -0.74800
Al771      Al  0.31497834  0.23084215  0.72503073     1.90100
O772        O  0.36376367  0.21910118  0.67223039    -0.73900
O773        O  0.44637507  0.34314339  0.69170152    -0.73700
O774        O  0.38191236  0.29763745  0.64888176    -0.79400
O775        O  0.41385966  0.37191010  0.71934005    -0.77600
O776        O  0.35557163  0.28228881  0.70617385    -1.13700
O777        O  0.33933932  0.32589499  0.75153511    -0.72900
C778        C  0.33543326  0.29638973  0.77091370     0.97800
C779        C  0.32090061  0.19209544  0.67101498     0.94200
Al780      Al  0.40008209  0.28166857  0.68505787     1.55600
O781        O  0.26446060  0.24079133  0.72425517    -0.77500
C782        C  0.44908664  0.37497775  0.70763283     0.98400
C783        C  0.39855124  0.23266753  0.73702927     0.93300
O784        O  0.35618606  0.20835890  0.73232775    -0.82800
O785        O  0.69984194  0.70871937  0.51391635    -0.82300
C786        C  0.64776785  0.65793663  0.89753776     0.97100
O787        O  0.67094758  0.65214040  0.91765667    -0.71400
O788        O  0.72314131  0.67253104  0.96567513    -0.75000
Al789      Al  0.65935356  0.64673813  0.95939487     1.49000
C790        C  0.75719164  0.71227859  0.96418777     0.92300
O791        O  0.70832561  0.79250267  0.95346247    -0.81200
O792        O  0.60256050  0.73528817  0.97013519    -0.74800
Al793      Al  0.70040590  0.74572467  0.98118374     1.90100
O794        O  0.65648765  0.75691345  0.91895013    -0.73900
O795        O  0.56543170  0.64896448  0.95633155    -0.73700
O796        O  0.61966764  0.67106245  0.90438646    -0.79400
O797        O  0.59632368  0.60633288  0.95270776    -0.77600
O798        O  0.65829017  0.69882467  0.95977798    -1.13700
O799        O  0.64773352  0.63801855  0.50192142    -0.72900
C800        C  0.67324634  0.66739331  0.52115679     0.97800
C801        C  0.69072513  0.79266168  0.92845769     0.94200
Al802      Al  0.61489349  0.70283304  0.93922001     1.55600
O803        O  0.75155237  0.74632822  0.96237959    -0.77500
C804        C  0.56137493  0.61001993  0.95528046     0.98400
C805        C  0.61931310  0.74796760  0.99614501     0.93300
O806        O  0.65618426  0.75096828  0.50359998    -0.82800
O807        O  0.94759222  0.26626195  0.98839585    -0.82300
C808        C  0.96895163  0.32394945  0.60905275     0.97100
O809        O  0.99676573  0.34486669  0.58782727    -0.71400
O810        O  0.03002900  0.30221127  0.55760922    -0.75000
Al811      Al  0.99817092  0.33279571  0.54604019     1.49000
C812        C  0.03133798  0.27217823  0.54171604     0.92300
O813        O  0.92052257  0.19639412  0.56063271    -0.81200
O814        O  0.85991530  0.26492638  0.53055644    -0.74800
Al815      Al  0.93513128  0.23339496  0.52522735     1.90100
O816        O  0.87136883  0.21583423  0.57739500    -0.73900
O817        O  0.91215616  0.34127852  0.56049779    -0.73700
O818        O  0.92837323  0.29315567  0.60354447    -0.79400
O819        O  0.97567490  0.37189143  0.53469164    -0.77600
O820        O  0.94364884  0.28214855  0.54604468    -1.13700
O821        O  0.00888073  0.32941648  0.00357555    -0.72900
C822        C  0.98362681  0.30354355  0.98269596     0.97800
C823        C  0.88679175  0.18848019  0.57723107     0.94200
Al824      Al  0.89675214  0.27908036  0.56632337     1.55600
O825        O  0.99646987  0.24475451  0.52704180    -0.77500
C826        C  0.94278868  0.37443611  0.54577648     0.98400
C827        C  0.84963915  0.23020527  0.51466976     0.93300
O828        O  0.87213230  0.20987484  0.51676129    -0.82800
O829        O  0.72061146  0.01204988  0.92796324    -0.82300
C830        C  0.67088462  0.01995311  0.81291317     0.97100
O831        O  0.66142017  0.98952694  0.83284057    -0.71400
O832        O  0.68098176  0.95429326  0.87985716    -0.75000
Al833      Al  0.65741938  0.99438499  0.87477423     1.49000
C834        C  0.72000869  0.95865415  0.87766985     0.92300
O835        O  0.80482264  0.08686683  0.86759305    -0.81200
O836        O  0.74435473  0.13701847  0.89001771    -0.74800
Al837      Al  0.75769402  0.04893659  0.89536047     1.90100
O838        O  0.77282892  0.11363197  0.83774934    -0.73900
O839        O  0.66045794  0.09086955  0.87107360    -0.73700
O840        O  0.68811594  0.06200925  0.81984509    -0.79400
O841        O  0.61726963  0.01745908  0.86916498    -0.77600
O842        O  0.71078355  0.04703631  0.87526791    -1.13700
O843        O  0.65029387  0.99637742  0.91754761    -0.72900
C844        C  0.67989086  0.99851810  0.93605568     0.97800
C845        C  0.80705678  0.11063486  0.84510815     0.94200
Al846      Al  0.71607484  0.09639136  0.85630852     1.55600
O847        O  0.75474513  0.99781550  0.87529744    -0.77500
C848        C  0.62132363  0.05624812  0.87047311     0.98400
C849        C  0.76016978  0.13163194  0.91456039     0.93300
O850        O  0.76647141  0.09841520  0.91854926    -0.82800
O851        O  0.67813471  0.92846061  0.57073684    -0.82300
C852        C  0.64267709  0.95768908  0.68956023     0.97100
O853        O  0.64808593  0.98376458  0.66742597    -0.71400
O854        O  0.72056351  0.01507630  0.63441856    -0.75000
Al855      Al  0.65796565  0.98068790  0.62512302     1.49000
C856        C  0.75309479  0.01407636  0.62162204     0.92300
O857        O  0.71617373  0.90262467  0.64469127    -0.81200
O858        O  0.58682889  0.84419142  0.61484685    -0.74800
Al859      Al  0.69524761  0.91653766  0.60841129     1.90100
O860        O  0.64725408  0.85431897  0.66123692    -0.73900
O861        O  0.56448606  0.89750801  0.64524244    -0.73700
O862        O  0.63186414  0.91635654  0.68571453    -0.79400
O863        O  0.59573963  0.95644296  0.61537208    -0.77600
O864        O  0.65503214  0.92687289  0.62794844    -1.13700
O865        O  0.66850474  0.98628602  0.58218937    -0.72900
C866        C  0.67155642  0.96053418  0.56274665     0.97800
C867        C  0.68985157  0.86878525  0.66103849     0.94200
Al868      Al  0.61124922  0.88173070  0.64991851     1.55600
O869        O  0.74661639  0.97752291  0.60982965    -0.77500
C870        C  0.56127539  0.92639903  0.62914771     0.98400
C871        C  0.61036730  0.83423219  0.59770984     0.93300
O872        O  0.65318726  0.85338361  0.60075785    -0.82800
O873        O  0.06739448  0.72198087  0.73915050    -0.82300
C874        C  0.04517435  0.66038065  0.85878097     0.97100
O875        O  0.01836309  0.63871267  0.83734520    -0.71400
O876        O  0.98452838  0.68143426  0.80776312    -0.75000
Al877      Al  0.01753952  0.65249386  0.79569399     1.49000
C878        C  0.98333729  0.71228040  0.79265940     0.92300
O879        O  0.09466044  0.78872099  0.81210251    -0.81200
O880        O  0.15507787  0.72044552  0.78150726    -0.74800
Al881      Al  0.08019964  0.75291159  0.77632194     1.90100
O882        O  0.14427393  0.76954790  0.82814436    -0.73900
O883        O  0.10251458  0.64402458  0.81174933    -0.73700
O884        O  0.08553547  0.69215325  0.85371387    -0.79400
O885        O  0.04142358  0.61522915  0.78364692    -0.77600
O886        O  0.07163324  0.70357115  0.79647984    -1.13700
O887        O  0.00713971  0.65738617  0.75362693    -0.72900
C888        C  0.03213047  0.68436902  0.73299501     0.97800
C889        C  0.12870705  0.79673246  0.82830771     0.94200
Al890      Al  0.11813744  0.70629606  0.81708347     1.55600
O891        O  0.01865339  0.74117377  0.77873670    -0.77500
C892        C  0.07272350  0.61165521  0.79625426     1.00800
C893        C  0.16512796  0.75495387  0.76527071     0.93300
O894        O  0.14330469  0.77601791  0.76760792    -0.82800
O895        O  0.29218674  0.97806203  0.67695330    -0.82300
C896        C  0.34502642  0.96801228  0.56308531     0.97100
O897        O  0.35359678  0.99797331  0.58293160    -0.71400
O898        O  0.33045592  0.03248786  0.62750471    -0.75000
Al899      Al  0.35599420  0.99386394  0.62495374     1.49000
C900        C  0.29106905  0.02709445  0.62420706     0.92300
O901        O  0.20883761  0.89731529  0.61979765    -0.81200
O902        O  0.26817808  0.85047936  0.64025457    -0.74800
Al903      Al  0.25606601  0.93831821  0.64577786     1.90100
O904        O  0.24224271  0.87591282  0.58720666    -0.73900
O905        O  0.35327738  0.89701643  0.62233094    -0.73700
O906        O  0.32769010  0.92600186  0.57021390    -0.79400
O907        O  0.39614691  0.97066234  0.62169835    -0.77600
O908        O  0.30316408  0.94091852  0.62555853    -1.13700
O909        O  0.36253530  0.99378622  0.66797818    -0.72900
C910        C  0.33258798  0.99234833  0.68578190     0.97800
C911        C  0.20714327  0.87611072  0.59623556     0.94200
Al912      Al  0.29817246  0.89175253  0.60665776     1.55600
O913        O  0.25656080  0.98738292  0.62384653    -0.77500
C914        C  0.39230117  0.93192224  0.62338180     0.98400
C915        C  0.25520041  0.85689024  0.66566360     0.93300
O916        O  0.25075663  0.89110410  0.67041474    -0.82800
O917        O  0.73826300  0.65868138  0.65528891    -0.82300
C918        C  0.67679857  0.62239046  0.77411933     0.97100
O919        O  0.65396522  0.62638039  0.75274230    -0.71400
O920        O  0.69490875  0.70042765  0.72065636    -0.75000
Al921      Al  0.66658254  0.63825430  0.71008660     1.49000
C922        C  0.72712452  0.73294773  0.70679241     0.92300
O923        O  0.80244498  0.69712378  0.72834769    -0.81200
O924        O  0.73203986  0.56811151  0.69687025    -0.74800
Al925      Al  0.76769681  0.67622744  0.69225519     1.90100
O926        O  0.78357432  0.62793981  0.74354723    -0.73900
O927        O  0.65644835  0.54490846  0.72866943    -0.73700
O928        O  0.70703410  0.61174874  0.76894575    -0.79400
O929        O  0.62885599  0.57668296  0.69933009    -0.77600
O930        O  0.71758460  0.63549471  0.71184283    -1.13700
O931        O  0.67145417  0.65077386  0.66691627    -0.72900
C932        C  0.70032032  0.65366727  0.64735224     0.97800
C933        C  0.81068998  0.67086683  0.74411208     0.94200
Al934      Al  0.71961287  0.59154776  0.73278263     1.55600
O935        O  0.75687470  0.72684019  0.69397826    -0.77500
C936        C  0.62406217  0.54215373  0.71308028     0.98400
C937        C  0.76594989  0.59230588  0.67999697     0.93300
O938        O  0.78983022  0.63499276  0.68391653    -0.82800
O939        O  0.94853094  0.65886906  0.60150992    -0.82300
C940        C  0.97516063  0.62769721  0.98040898     0.97100
O941        O  0.00193790  0.63355708  0.00204174    -0.71400
O942        O  0.03398603  0.70677181  0.53471593    -0.75000
Al943      Al  0.00057114  0.64361737  0.54451059     1.49000
C944        C  0.03420445  0.73779294  0.55033427     0.92300
O945        O  0.92376890  0.70375706  0.52996301    -0.81200
O946        O  0.86309065  0.57280129  0.55722069    -0.74800
Al947      Al  0.93694803  0.67962367  0.56502620     1.90100
O948        O  0.87517441  0.63591921  0.51181997    -0.73900
O949        O  0.91540853  0.55054414  0.52631556    -0.73700
O950        O  0.93446211  0.61819101  0.98513138    -0.79400
O951        O  0.97682421  0.58109775  0.55414803    -0.77600
O952        O  0.94643775  0.64039335  0.54364979    -1.13700
O953        O  0.00908323  0.65527741  0.58716783    -0.72900
C954        C  0.98368446  0.65649532  0.60775876     0.97800
C955        C  0.89097235  0.67878794  0.51258514     0.94200
Al956      Al  0.90049123  0.59777414  0.52203266     1.55600
O957        O  0.99843347  0.72993995  0.56414016    -0.77500
C958        C  0.94502478  0.54685847  0.54122577     0.98400
C959        C  0.85286505  0.59574738  0.57460397     0.93300
O960        O  0.87333375  0.63873837  0.57261012    -0.82800
C961        C  0.77677393  0.57312022  0.65372682    -0.06000
C962        C  0.75710797  0.57403009  0.62606397    -0.33400
C963        C  0.77874433  0.57528033  0.59885799     0.35900
C964        C  0.81977968  0.57434905  0.59924319    -0.06300
C965        C  0.83605721  0.56735214  0.62666369    -0.33300
C966        C  0.81532950  0.56768133  0.65394762     0.35800
H967        H  0.72785664  0.57900951  0.62562386     0.16100
O968        O  0.76273499  0.58299733  0.57238512    -0.60800
H969        H  0.86788197  0.56696193  0.62711388     0.16100
O970        O  0.83614055  0.56830616  0.68060446    -0.60900
H971        H  0.81801922  0.53686810  0.68882188     0.43100
H972        H  0.73656179  0.55285248  0.56662430     0.43100
C973        C  0.07786971  0.78111043  0.55600145    -0.06000
C974        C  0.07965296  0.80994865  0.57940478    -0.33400
C975        C  0.12151010  0.84341080  0.59139420     0.35900
C976        C  0.16295925  0.84868138  0.58004807    -0.06300
C977        C  0.16123512  0.82333824  0.55451891    -0.33300
C978        C  0.11934395  0.78977552  0.54257515     0.35800
H979        H  0.04844664  0.80454472  0.59000051     0.16100
O980        O  0.12105721  0.86826051  0.61563052    -0.60800
H981        H  0.19247647  0.82757266  0.54471602     0.16100
O982        O  0.11953614  0.76435761  0.51859586    -0.60900
H983        H  0.12634000  0.74137664  0.52732151     0.43100
H984        H  0.12430571  0.89677615  0.60689780     0.43100
C985        C  0.24450344  0.82484267  0.69106788    -0.06000
C986        C  0.21191762  0.77836555  0.68791418    -0.33400
C987        C  0.19058275  0.75153164  0.71356089     0.35900
C988        C  0.20114274  0.77165525  0.74231472    -0.06300
C989        C  0.23793247  0.81613236  0.74556188    -0.33300
C990        C  0.25977796  0.84271756  0.72016210     0.35800
H991        H  0.19988492  0.76409266  0.66572623     0.16100
O992        O  0.15530353  0.70757955  0.71012296    -0.60800
H993        H  0.24642175  0.83195242  0.76761779     0.16100
O994        O  0.29379378  0.88731529  0.72386873    -0.60900
H995        H  0.27811711  0.90401449  0.73037537     0.43100
H996        H  0.16998961  0.68855235  0.70938429     0.43100
C997        C  0.02809354  0.64910579  0.89008073    -0.06000
C998        C  0.98079719  0.62215081  0.89522712    -0.33400
C999        C  0.96292579  0.61439287  0.92445095     0.35900
C1000       C  0.99257085  0.63307930  0.94925793    -0.06300
C1001       C  0.03996034  0.65830183  0.94418763    -0.33300
C1002       C  0.05778161  0.66671909  0.91497754     0.35800
H1003       H  0.95724721  0.60791097  0.87650210     0.16100
O1004       O  0.91657953  0.58765040  0.92850572    -0.60800
H1005       H  0.06345213  0.67272368  0.96292694     0.16100
O1006       O  0.10428072  0.69199439  0.91114800    -0.60900
H1007       H  0.11188776  0.72435592  0.91221789     0.43100
H1008       H  0.90357442  0.60673334  0.92176761     0.43100
C1009       C  0.99630468  0.65812951  0.63967790    -0.06000
C1010       C  0.96198569  0.64230725  0.66183604    -0.33400
C1011       C  0.97309763  0.64896346  0.69240558     0.35900
C1012       C  0.01928451  0.67268646  0.70122188    -0.06300
C1013       C  0.05356814  0.68799997  0.67911883    -0.33300
C1014       C  0.04246428  0.68025588  0.64858148     0.35800
H1015       H  0.92639432  0.62596350  0.65544643     0.16100
O1016       O  0.93859553  0.63417276  0.71331884    -0.60800
H1017       H  0.08915942  0.70704702  0.68544333     0.16100
O1018       O  0.07705585  0.69646966  0.62766440    -0.60900
H1019       H  0.08418766  0.72811040  0.62306944     0.43100
H1020       H  0.93352787  0.66036088  0.71635275     0.43100
C1021       C  0.93895793  0.71034293  0.78710030    -0.06000
C1022       C  0.93656218  0.73768523  0.76399063    -0.33400
C1023       C  0.89461081  0.72733267  0.75114148     0.35900
C1024       C  0.85382553  0.68920947  0.76149307    -0.06300
C1025       C  0.85567588  0.66484504  0.78662882    -0.33300
C1026       C  0.89765489  0.67512539  0.79948059     0.35800
H1027       H  0.96757125  0.76494815  0.75398098     0.16100
O1028       O  0.89459803  0.75158211  0.72631974    -0.60800
H1029       H  0.82457622  0.63605277  0.79537728     0.16100
O1030       O  0.89788921  0.64895185  0.82310330    -0.60900
H1031       H  0.89310852  0.62019736  0.81390923     0.43100
H1032       H  0.89339520  0.77825197  0.73448542     0.43100
C1033       C  0.51761262  0.92680450  0.62749894    -0.06000
C1034       C  0.47526209  0.88631441  0.63095444    -0.33400
C1035       C  0.43399095  0.88701583  0.62999710     0.35900
C1036       C  0.43463473  0.92877521  0.62573248    -0.06300
C1037       C  0.47722176  0.96916338  0.62297200    -0.33300
C1038       C  0.51812555  0.96844873  0.62374131     0.35800
H1039       H  0.47412898  0.85399253  0.63419511     0.16100
O1040       O  0.39344254  0.84669684  0.63306603    -0.60800
H1041       H  0.47912662  0.00189697  0.62005310     0.16100
O1042       O  0.55861784  0.00918436  0.62225614    -0.60900
H1043       H  0.56505958  0.01565433  0.60043666     0.43100
H1044       H  0.38659863  0.84369155  0.65495870     0.43100
C1045       C  0.70733487  0.84281049  0.67813831    -0.06000
C1046       C  0.68114862  0.81425087  0.70201741    -0.33400
C1047       C  0.69048310  0.78155012  0.71418404     0.35900
C1048       C  0.72615718  0.77610835  0.70207124    -0.06300
C1049       C  0.75525251  0.80788563  0.68040520    -0.33300
C1050       C  0.74607179  0.84090639  0.66840051     0.35800
H1051       H  0.65170687  0.81561578  0.71029765     0.16100
O1052       O  0.66202391  0.75274119  0.73620198    -0.60800
H1053       H  0.78314152  0.80491072  0.67088342     0.16100
O1054       O  0.77317822  0.86862176  0.64552052    -0.60900
H1055       H  0.76005599  0.85085047  0.62679414     0.43100
H1056       H  0.67884413  0.76499414  0.75535861     0.43100
C1057       C  0.64860567  0.97549173  0.72056555    -0.06000
C1058       C  0.62191945  0.94575104  0.74368377    -0.33400
C1059       C  0.62767884  0.96048084  0.77352210     0.35900
C1060       C  0.66152386  0.00552567  0.78099183    -0.06300
C1061       C  0.68755763  0.03581445  0.75774977    -0.33300
C1062       C  0.68114297  0.02116101  0.72766019     0.35800
H1063       H  0.59619617  0.91080027  0.73857954     0.16100
O1064       O  0.59993569  0.93032523  0.79523072    -0.60800
H1065       H  0.71384854  0.07048413  0.76298424     0.16100
O1066       O  0.70872726  0.05086741  0.70569184    -0.60900
H1067       H  0.69386553  0.06863171  0.69983984     0.43100
H1068       H  0.57417258  0.93626391  0.79742373     0.43100
C1069       C  0.66821376  0.98361780  0.96748581    -0.06000
C1070       C  0.65821668  0.00904666  0.98780753    -0.33400
C1071       C  0.65780362  0.00070004  0.51881496     0.35900
C1072       C  0.66836873  0.96786740  0.53001653    -0.06300
C1073       C  0.67709230  0.94169581  0.50933304    -0.33300
C1074       C  0.67620506  0.94923142  0.97840729     0.35800
H1075       H  0.65287317  0.03621237  0.97959265     0.16100
O1076       O  0.64878078  0.02689738  0.53801709    -0.60800
H1077       H  0.68491838  0.91596762  0.51706110     0.16100
O1078       O  0.68677066  0.92432676  0.95902430    -0.60900
H1079       H  0.65720792  0.90124669  0.95011029     0.43100
H1080       H  0.61528473  0.00911003  0.54151739     0.43100
C1081       C  0.94175001  0.41773629  0.54291365    -0.06000
C1082       C  0.98289355  0.45885624  0.53781605    -0.33400
C1083       C  0.98419050  0.50086889  0.53760894     0.35900
C1084       C  0.94386187  0.50256325  0.54218153    -0.06300
C1085       C  0.90236911  0.46153241  0.54621404    -0.33300
C1086       C  0.90114633  0.41939140  0.54696489     0.35800
H1087       H  0.01456291  0.45865508  0.53466565     0.16100
O1088       O  0.02595506  0.54087597  0.03166658    -0.60800
H1089       H  0.87095154  0.46224008  0.54933881     0.16100
O1090       O  0.86016515  0.38020068  0.55196142    -0.60900
H1091       H  0.84740949  0.36883802  0.53162653     0.43100
H1092       H  0.02573175  0.54722101  0.00984165     0.43100
C1093       C  0.81225315  0.21437277  0.99218471    -0.06000
C1094       C  0.82093523  0.23593960  0.96389831    -0.33400
C1095       C  0.80084976  0.21019487  0.93773654     0.35900
C1096       C  0.77077041  0.16284424  0.94024927    -0.06300
C1097       C  0.75707807  0.14305934  0.96899848    -0.33300
C1098       C  0.77754478  0.16849310  0.99485394     0.35800
H1099       H  0.84727170  0.27144874  0.96176606     0.16100
O1100       O  0.81566500  0.23015862  0.90997462    -0.60800
H1101       H  0.73351579  0.10666530  0.97128833     0.16100
O1102       O  0.77032697  0.14321602  0.52199337    -0.60900
H1103       H  0.74085572  0.13955454  0.52912621     0.43100
H1104       H  0.79572596  0.24286748  0.90478976     0.43100
C1105       C  0.79679777  0.05789336  0.61725112    -0.06000
C1106       C  0.80051628  0.09784925  0.62959803    -0.33400
C1107       C  0.83201203  0.14096746  0.61822173     0.35900
C1108       C  0.86185733  0.14516491  0.59463804    -0.06300
C1109       C  0.86245770  0.10585352  0.58509370    -0.33300
C1110       C  0.83004277  0.06236408  0.59606127     0.35800
H1111       H  0.77631438  0.09570061  0.64645376     0.16100
O1112       O  0.83191039  0.17868070  0.62948503    -0.60800
H1113       H  0.88560235  0.10830044  0.56734807     0.16100
O1114       O  0.82946206  0.02451230  0.58447230    -0.60900
H1115       H  0.81257273  0.01818136  0.56517471     0.43100
H1116       H  0.80493150  0.17822425  0.62030577     0.43100
C1117       C  0.65412532  0.64917099  0.86568606    -0.06000
C1118       C  0.69352586  0.64759671  0.85791533    -0.33400
C1119       C  0.70115694  0.63891945  0.82841037     0.35900
C1120       C  0.66881555  0.63108940  0.80567676    -0.06300
C1121       C  0.62956985  0.63325786  0.81327054    -0.33300
C1122       C  0.62222728  0.64252531  0.84291647     0.35800
H1123       H  0.71916464  0.65373375  0.87476543     0.16100
O1124       O  0.74147975  0.64024539  0.82190762    -0.60800
H1125       H  0.60440800  0.62772537  0.79620604     0.16100
O1126       O  0.58324151  0.64380206  0.84942736    -0.60900
H1127       H  0.59075892  0.67552707  0.84469299     0.43100
H1128       H  0.73672892  0.60996777  0.82818431     0.43100
C1129       C  0.67572368  0.65460034  0.55229885    -0.06000
C1130       C  0.71860798  0.66447791  0.56276115    -0.33400
C1131       C  0.72669382  0.66370776  0.59339324     0.35900
C1132       C  0.69110529  0.65234329  0.61455204    -0.06300
C1133       C  0.64739101  0.64071079  0.60383861    -0.33300
C1134       C  0.63956395  0.64168528  0.57280921     0.35800
H1135       H  0.74680563  0.67510470  0.54707304     0.16100
O1136       O  0.77020385  0.67583569  0.60225235    -0.60800
H1137       H  0.61959245  0.63189289  0.61951002     0.16100
O1138       O  0.59758541  0.63320673  0.56300677    -0.60900
H1139       H  0.58148978  0.60082948  0.55650045     0.43100
H1140       H  0.78637521  0.70957860  0.60452240     0.43100
C1141       C  0.70785674  0.83566525  0.91080113    -0.06000
C1142       C  0.68502693  0.83502367  0.88411067    -0.33400
C1143       C  0.69228711  0.87568656  0.87078875     0.35900
C1144       C  0.72411134  0.91797267  0.88333519    -0.06300
C1145       C  0.75073824  0.91888604  0.90785686    -0.33300
C1146       C  0.74259272  0.87822290  0.92181620     0.35800
H1147       H  0.65884722  0.80293922  0.87470734     0.16100
O1148       O  0.66633274  0.87382480  0.84648603    -0.60800
H1149       H  0.77456855  0.95120673  0.91823173     0.16100
O1150       O  0.76582631  0.88090353  0.94775688    -0.60900
H1151       H  0.79283396  0.87897855  0.94108452     0.43100
H1152       H  0.63624360  0.86668317  0.85501854     0.43100
C1153       C  0.59601541  0.75996723  0.51974565    -0.06000
C1154       C  0.58696022  0.73750603  0.54773597    -0.33400
C1155       C  0.58405183  0.75879954  0.57395533     0.35900
C1156       C  0.59025123  0.80299159  0.57219652    -0.06300
C1157       C  0.59343349  0.82284317  0.54378411    -0.33300
C1158       C  0.59651894  0.80162222  0.51753980     0.35800
H1159       H  0.58700525  0.70559465  0.54968447     0.16100
O1160       O  0.58132962  0.73891852  0.60143580    -0.60800
H1161       H  0.59915766  0.85732054  0.54224343     0.16100
O1162       O  0.60620564  0.82495774  0.99019044    -0.60900
H1163       H  0.57644990  0.81212916  0.97966752     0.43100
H1164       H  0.54813077  0.71887040  0.60526012     0.43100
C1165       C  0.80263817  0.71717953  0.96875646    -0.06000
C1166       C  0.81123996  0.68469722  0.95546517    -0.33400
C1167       C  0.84367875  0.67523949  0.96764559     0.35900
C1168       C  0.86777125  0.69813431  0.49449545    -0.06300
C1169       C  0.86325427  0.73454729  0.50567794    -0.33300
C1170       C  0.83085725  0.74435501  0.49323936     0.35800
H1171       H  0.78994092  0.66379409  0.93710123     0.16100
O1172       O  0.84871785  0.64099266  0.95513532    -0.60800
H1173       H  0.88168580  0.75260495  0.52572142     0.16100
O1174       O  0.82344725  0.77653502  0.50673141    -0.60900
H1175       H  0.80081891  0.75995571  0.52294001     0.43100
H1176       H  0.87735002  0.65694242  0.94320725     0.43100
C1177       C  0.49370559  0.41719016  0.71112685    -0.06000
C1178       C  0.49619801  0.45956056  0.70774285    -0.33400
C1179       C  0.53843285  0.50015612  0.70768911     0.35900
C1180       C  0.57930612  0.49906054  0.71198193    -0.06300
C1181       C  0.57660809  0.45660359  0.71642019    -0.33300
C1182       C  0.53425590  0.41583775  0.71565685     0.35800
H1183       H  0.46531787  0.46114827  0.70416378     0.16100
O1184       O  0.53914749  0.54085456  0.70432914    -0.60800
H1185       H  0.60743102  0.45496766  0.72005938     0.16100
O1186       O  0.53284536  0.37486934  0.71939034    -0.60900
H1187       H  0.52574871  0.36710511  0.74103830     0.43100
H1188       H  0.53879153  0.54534331  0.68223967     0.43100
C1189       C  0.28681519  0.06841730  0.62554555    -0.06000
C1190       C  0.25467352  0.06897824  0.64530395    -0.33400
C1191       C  0.26255306  0.11022562  0.65813368     0.35900
C1192       C  0.30319150  0.15135417  0.65125726    -0.06300
C1193       C  0.33132997  0.15128055  0.62798360    -0.33300
C1194       C  0.32325161  0.11030193  0.61504420     0.35800
H1195       H  0.22637327  0.03711557  0.65358282     0.16100
O1196       O  0.23332138  0.10890605  0.68003826    -0.60800
H1197       H  0.36189736  0.18267988  0.62151027     0.16100
O1198       O  0.35444330  0.11118698  0.59487164    -0.60900
H1199       H  0.33848916  0.10320569  0.57517086     0.43100
H1200       H  0.21085692  0.11438541  0.66923996     0.43100
C1201       C  0.49843308  0.06568492  0.87322221    -0.06000
C1202       C  0.49923832  0.02953417  0.85823140    -0.33400
C1203       C  0.53903882  0.02674031  0.85684116     0.35900
C1204       C  0.57959850  0.06039925  0.87067102    -0.06300
C1205       C  0.57960845  0.09765394  0.88463496    -0.33300
C1206       C  0.53951397  0.10044456  0.88606439     0.35800
H1207       H  0.46852745  0.00250731  0.84790546     0.16100
O1208       O  0.53772405  0.99065453  0.84186979    -0.60800
H1209       H  0.61050175  0.12413951  0.89512137     0.16100
O1210       O  0.54079350  0.13669553  0.90073689    -0.60900
H1211       H  0.54605311  0.15932267  0.88470740     0.43100
H1212       H  0.54619192  0.00128994  0.82075779     0.43100
C1213       C  0.41739925  0.22237636  0.76387712    -0.06000
C1214       C  0.41988839  0.18229963  0.76478289    -0.33400
C1215       C  0.42169939  0.16319875  0.79246514     0.35900
C1216       C  0.41823114  0.18272597  0.81966855    -0.06300
C1217       C  0.41935068  0.22471250  0.81873223    -0.33300
C1218       C  0.42039444  0.24529216  0.79102014     0.35800
H1219       H  0.41706162  0.16403412  0.74413240     0.16100
O1220       O  0.42110652  0.12238430  0.79260251    -0.60800
H1221       H  0.41606554  0.23985388  0.83938438     0.16100
O1222       O  0.41862289  0.28492191  0.79081078    -0.60900
H1223       H  0.44978162  0.30928528  0.78496895     0.43100
H1224       H  0.45245592  0.13005723  0.79847177     0.43100
C1225       C  0.15383609  0.84013999  0.84534916    -0.06000
C1226       C  0.15397325  0.87946723  0.83492962    -0.33400
C1227       C  0.18622722  0.92295793  0.84562130     0.35900
C1228       C  0.21877835  0.92757283  0.86740684    -0.06300
C1229       C  0.21477713  0.88769486  0.88031941    -0.33300
C1230       C  0.18307327  0.84441090  0.86933207     0.35800
H1231       H  0.13146013  0.87698202  0.81674940     0.16100
O1232       O  0.18738750  0.96069547  0.83315748    -0.60800
H1233       H  0.23856531  0.89002656  0.89754092     0.16100
O1234       O  0.18200395  0.80655496  0.88156129    -0.60900
H1235       H  0.20870813  0.80598693  0.87280573     0.43100
H1236       H  0.20407073  0.96603030  0.81378940     0.43100
C1237       C  0.34250477  0.00755692  0.71732589    -0.06000
C1238       C  0.31745962  0.02628791  0.72974100    -0.33400
C1239       C  0.31658643  0.03223994  0.76059100     0.35900
C1240       C  0.34200703  0.02042390  0.78002982    -0.06300
C1241       C  0.36894729  0.00352365  0.76765631    -0.33300
C1242       C  0.36965849  0.99745892  0.73632224     0.35800
H1243       H  0.29651841  0.03450751  0.71547104     0.16100
O1244       O  0.28914917  0.04805329  0.77155829    -0.60800
H1245       H  0.38919124  0.99487762  0.78225313     0.16100
O1246       O  0.39439998  0.97893603  0.72485238    -0.60900
H1247       H  0.42398573  0.00551015  0.71848265     0.43100
H1248       H  0.25912345  0.02025306  0.77541966     0.43100
C1249       C  0.36884893  0.01297423  0.97039551    -0.06000
C1250       C  0.39026564  0.04405108  0.99393325    -0.33400
C1251       C  0.38398327  0.02980978  0.52380581     0.35900
C1252       C  0.35533561  0.98309042  0.53109562    -0.06300
C1253       C  0.33512086  0.95154619  0.50748635    -0.33300
C1254       C  0.34168395  0.96597093  0.97741738     0.35800
H1255       H  0.41205373  0.08015234  0.98911732     0.16100
O1256       O  0.40672250  0.06172482  0.54580221    -0.60800
H1257       H  0.31294805  0.91555260  0.51242931     0.16100
O1258       O  0.31952674  0.93440980  0.95514618    -0.60900
H1259       H  0.33962498  0.92166008  0.95054755     0.43100
H1260       H  0.38917722  0.07776006  0.54848165     0.43100
C1261       C  0.07229186  0.48438454  0.79425689    -0.06000
C1262       C  0.03120463  0.48493644  0.79614622    -0.33400
C1263       C  0.03109197  0.52617754  0.79571538     0.35900
C1264       C  0.07267121  0.56805786  0.79445287    -0.06300
C1265       C  0.11397598  0.56770966  0.79329754    -0.33300
C1266       C  0.11396258  0.52622213  0.79251885     0.35800
H1267       H  0.99883610  0.45314831  0.79720320     0.16100
O1268       O  0.99012964  0.52517241  0.79784132    -0.60800
H1269       H  0.14624453  0.59963010  0.79259905     0.16100
O1270       O  0.15483261  0.52694839  0.79097763    -0.60900
H1271       H  0.16271169  0.53021323  0.76922524     0.43100
H1272       H  0.97895109  0.52187644  0.77682235     0.43100
C1273       C  0.21441686  0.27073196  0.71919287    -0.06000
C1274       C  0.20671442  0.30348287  0.70503307    -0.33400
C1275       C  0.17490782  0.31433990  0.71669144     0.35900
C1276       C  0.14952179  0.29187265  0.74271274    -0.06300
C1277       C  0.15354043  0.25577265  0.75494417    -0.33300
C1278       C  0.18613371  0.24556623  0.74377383     0.35800
H1279       H  0.22774679  0.32319579  0.68613197     0.16100
O1280       O  0.17116564  0.34913141  0.70364012    -0.60800
H1281       H  0.13439992  0.23814659  0.77498930     0.16100
O1282       O  0.19259927  0.21373545  0.75880642    -0.60900
H1283       H  0.21379123  0.23067787  0.77557254     0.43100
H1284       H  0.14656118  0.33406947  0.68846071     0.43100
C1285       C  0.02429095  0.32814844  0.89018911    -0.06000
C1286       C  0.97920169  0.31469290  0.89833726    -0.33400
C1287       C  0.96566796  0.30714720  0.92847542     0.35900
C1288       C  0.99781454  0.31542682  0.95119550    -0.06300
C1289       C  0.04335521  0.33091812  0.94334881    -0.33300
C1290       C  0.05645628  0.33590368  0.91309327     0.35800
H1291       H  0.95363805  0.30763712  0.88124035     0.16100
O1292       O  0.92075126  0.29115163  0.93546759    -0.60800
H1293       H  0.06825801  0.33643496  0.96063414     0.16100
O1294       O  0.10042861  0.34724752  0.90629950    -0.60900
H1295       H  0.10071397  0.31803647  0.90708161     0.43100
H1296       H  0.90556125  0.25759433  0.93254451     0.43100
C1297       C  0.02026483  0.35343454  0.69999315    -0.06000
C1298       C  0.97313990  0.32543355  0.69488758    -0.33400
C1299       C  0.95553651  0.31620628  0.66555173     0.35900
C1300       C  0.98522165  0.33536449  0.64060659    -0.06300
C1301       C  0.03208365  0.36490013  0.64592048    -0.33300
C1302       C  0.04966150  0.37372048  0.67515622     0.35800
H1303       H  0.94991320  0.30948562  0.71367263     0.16100
O1304       O  0.90950029  0.28744501  0.66164837    -0.60800
H1305       H  0.05568841  0.38059057  0.62729491     0.16100
O1306       O  0.09562309  0.40288883  0.67915886    -0.60900
H1307       H  0.11004223  0.38399893  0.67582669     0.43100
H1308       H  0.89599452  0.30756869  0.66184672     0.43100
C1309       C  0.93849781  0.20530862  0.80630537    -0.06000
C1310       C  0.89812084  0.19954317  0.79315516    -0.33400
C1311       C  0.85499586  0.16659613  0.80399456     0.35900
C1312       C  0.85123140  0.13816615  0.82855272    -0.06300
C1313       C  0.89145887  0.14058897  0.83951897    -0.33300
C1314       C  0.93468114  0.17351230  0.82853764     0.35800
H1315       H  0.89978070  0.22264424  0.77557888     0.16100
O1316       O  0.81685656  0.16387903  0.79106921    -0.60800
H1317       H  0.88973122  0.11864359  0.85792153     0.16100
O1318       O  0.97285298  0.17636790  0.84145665    -0.60900
H1319       H  0.98180215  0.15892044  0.82785762     0.43100
H1320       H  0.81402487  0.18910722  0.80014040     0.43100
C1321       C  0.43141022  0.48480965  0.95647297    -0.06000
C1322       C  0.43450735  0.52550814  0.96704750    -0.33400
C1323       C  0.47638693  0.56681494  0.96681235     0.35900
C1324       C  0.51601044  0.56787718  0.95580760    -0.06300
C1325       C  0.51259916  0.52735598  0.94489079    -0.33300
C1326       C  0.47115542  0.48627281  0.94526917     0.35800
H1327       H  0.40510661  0.52431493  0.47594384     0.16100
O1328       O  0.47882652  0.60442915  0.47819274    -0.60800
H1329       H  0.54244094  0.52725197  0.93609305     0.16100
O1330       O  0.47038513  0.44758578  0.93518542    -0.60900
H1331       H  0.47690337  0.43437542  0.95322972     0.43100
H1332       H  0.48653669  0.60470399  0.49979885     0.43100
C1333       C  0.16055175  0.29654815  0.01072139    -0.06000
C1334       C  0.12186673  0.25531692  0.50355649    -0.33400
C1335       C  0.07927828  0.24387622  0.51596842     0.35900
C1336       C  0.07564670  0.27387801  0.53647040    -0.06300
C1337       C  0.11606579  0.31181071  0.54699117    -0.33300
C1338       C  0.15853773  0.32315985  0.53462278     0.35800
H1339       H  0.12333274  0.23363255  0.48618900     0.16100
O1340       O  0.04113048  0.20536008  0.50582752    -0.60800
H1341       H  0.11458306  0.33497822  0.56315781     0.16100
O1342       O  0.19577602  0.36231277  0.04369613    -0.60900
H1343       H  0.21170388  0.35181334  0.55875041     0.43100
H1344       H  0.03480975  0.18155107  0.52120888     0.43100
C1345       C  0.24015377  0.41164845  0.89990873    -0.06000
C1346       C  0.20497917  0.42216340  0.90067341    -0.33400
C1347       C  0.18428117  0.42448210  0.87375688     0.35900
C1348       C  0.19754680  0.41408826  0.84615845    -0.06300
C1349       C  0.23632355  0.40960248  0.84518117    -0.33300
C1350       C  0.25786149  0.40866069  0.87186823     0.35800
H1351       H  0.19088840  0.42444718  0.92209668     0.16100
O1352       O  0.14701217  0.43033805  0.87509763    -0.60800
H1353       H  0.24691847  0.40179818  0.82402496     0.16100
O1354       O  0.29328903  0.40003305  0.87055992    -0.60900
H1355       H  0.28114654  0.37096446  0.85926997     0.43100
H1356       H  0.15759519  0.46122600  0.86662014     0.43100
C1357       C  0.34967350  0.35620699  0.55297820    -0.06000
C1358       C  0.34255591  0.37897029  0.57688520    -0.33400
C1359       C  0.35071056  0.37143546  0.60672154     0.35900
C1360       C  0.36510656  0.33961529  0.61319183    -0.06300
C1361       C  0.37263865  0.31730525  0.58907852    -0.33300
C1362       C  0.36550140  0.32565179  0.55928255     0.35800
H1363       H  0.33064958  0.40278617  0.57242806     0.16100
O1364       O  0.34336329  0.39462287  0.62929435    -0.60800
H1365       H  0.38348426  0.29258997  0.59323379     0.16100
O1366       O  0.37147511  0.30159438  0.53664163    -0.60900
H1367       H  0.40485020  0.31795324  0.53265960     0.43100
H1368       H  0.37332370  0.42276214  0.63237425     0.43100
C1369       C  0.33327632  0.30454906  0.80340776    -0.06000
C1370       C  0.30888492  0.26665785  0.82254155    -0.33400
C1371       C  0.30348834  0.27257748  0.85306071     0.35900
C1372       C  0.32354202  0.31672274  0.86516771    -0.06300
C1373       C  0.34984775  0.35470628  0.84660635    -0.33300
C1374       C  0.35383429  0.34893653  0.81566329     0.35800
H1375       H  0.29259741  0.23221634  0.81364882     0.16100
O1376       O  0.27758919  0.23499071  0.87081426    -0.60800
H1377       H  0.36574189  0.38889197  0.85587295     0.16100
O1378       O  0.37821791  0.38673533  0.79775533    -0.60900
H1379       H  0.35643322  0.39720514  0.79247048     0.43100
H1380       H  0.29914859  0.22523344  0.87803974     0.43100
C1381       C  0.28449669  0.20518532  0.95493393    -0.06000
C1382       C  0.25552956  0.17423567  0.93296804    -0.33400
C1383       C  0.26481565  0.14179587  0.92036835     0.35900
C1384       C  0.30332882  0.13946364  0.92998505    -0.06300
C1385       C  0.32836578  0.16595787  0.95476344    -0.33300
C1386       C  0.31917489  0.19851749  0.96730909     0.35800
H1387       H  0.22826589  0.17808354  0.92323452     0.16100
O1388       O  0.23932478  0.11666334  0.89626094    -0.60800
H1389       H  0.35714189  0.16354133  0.96322016     0.16100
O1390       O  0.34591465  0.22525496  0.99053524    -0.60900
H1391       H  0.37540267  0.24779358  0.98113812     0.43100
H1392       H  0.21517279  0.08741873  0.90503262     0.43100
loop_ 
_geom_bond_atom_site_label_1 
_geom_bond_atom_site_label_2 
_geom_bond_distance 
_geom_bond_site_symmetry_2 
_ccdc_geom_bond_type 
O1           C16   1.261       .  A
O1           Al9   1.885       .  S
C2           O12   1.266       .  A
C2            O3   1.268       .  A
C2          C661   1.478       .  S
O3         Al701   1.916   1_554  S
O4            C6   1.257       .  A
O4           Al5   1.894       .  S
Al5          O13   1.889       .  S
Al5          O15   1.916       .  S
Al5         O699   1.916       .  S
Al5          O14   1.777       .  S
C6           O19   1.260       .  A
C6          C685   1.488       .  S
O7           C17   1.262       .  A
O7           Al9   1.907       .  S
O8           C21   1.264       .  A
O8          Al18   1.915       .  S
Al9          O22   1.926       .  S
Al9          O19   1.908       .  S
Al9          O14   1.784       .  S
O10          C17   1.264       .  A
O10         Al18   1.918       .  S
O11          C20   1.257       .  A
O11         Al18   1.910       .  S
O12        Al714   1.897   1_554  S
O13          C20   1.255       .  A
O14         Al18   1.790       .  S
O15          C16   1.263       .  A
C16         C676   1.465       .  S
C17         C637   1.484       .  S
Al18        O708   1.895       .  S
C20         C625   1.484       .  S
C21          O22   1.266       .  A
C21         C649   1.473       .  S
O23          C38   1.259       .  A
O23         Al31   1.873       .  S
C24          O34   1.265       .  A
C24          O25   1.268       .  A
C24         C601   1.481       .  S
O25         Al27   1.921       .  S
O26          C28   1.256       .  A
O26         Al27   1.893   1_655  S
Al27         O35   1.895       .  S
Al27         O37   1.929       .  S
Al27         O36   1.775       .  S
C28          O41   1.260   1_655  A
C28         C613   1.494       .  S
O29          C39   1.266       .  A
O29         Al31   1.904       .  S
O30          C43   1.261       .  A
O30         Al40   1.916       .  S
Al31         O44   1.917       .  S
Al31         O41   1.925       .  S
Al31         O36   1.787       .  S
O32          C39   1.268       .  A
O32         Al40   1.924       .  S
O33          C42   1.255       .  A
O33         Al40   1.898       .  S
O34         Al40   1.887       .  S
O35          C42   1.257       .  A
O36         Al40   1.781       .  S
O37          C38   1.271       .  A
C38         C589   1.477       .  S
C39         C580   1.481       .  S
C42         C565   1.478       .  S
C43          O44   1.263       .  A
C43         C652   1.468       .  S
O45          C60   1.259       .  A
O45         Al53   1.861       .  S
C46          O56   1.268       .  A
C46          O47   1.270       .  A
C46         C553   1.484       .  S
O47         Al49   1.926       .  S
O48          C50   1.254       .  A
O48         Al49   1.888   1_565  S
Al49         O57   1.887       .  S
Al49         O59   1.936       .  S
Al49         O58   1.777       .  S
C50          O63   1.257   1_565  A
C50         C532   1.489       .  S
O51          C61   1.263       .  A
O51         Al53   1.901       .  S
O52          C65   1.265       .  A
O52         Al62   1.927       .  S
Al53         O66   1.922       .  S
Al53         O63   1.911       .  S
Al53         O58   1.787       .  S
O54          C61   1.269       .  A
O54         Al62   1.935       .  S
O55          C64   1.257       .  A
O55         Al62   1.919       .  S
O56         Al62   1.893       .  S
O57          C64   1.254       .  A
O58         Al62   1.783       .  S
O59          C60   1.269       .  A
C60         C544   1.476       .  S
C61         C688   1.484       .  S
C64         C505   1.492       .  S
C65          O66   1.263       .  A
C65         C520   1.475       .  S
O67          C82   1.264       .  A
O67         Al75   1.876       .  S
C68          O78   1.266       .  A
C68          O69   1.268       .  A
C68         C664   1.487       .  S
O69         Al71   1.920       .  S
O70          C72   1.255       .  A
O70         Al71   1.894       .  S
Al71         O79   1.897       .  S
Al71         O81   1.931       .  S
Al71         O80   1.778       .  S
C72          O85   1.255       .  A
C72         C577   1.487       .  S
O73          C83   1.265       .  A
O73         Al75   1.906       .  S
O74          C87   1.261       .  A
O74         Al84   1.917       .  S
Al75         O88   1.921       .  S
Al75         O85   1.904       .  S
Al75         O80   1.791       .  S
O76          C83   1.269       .  A
O76         Al84   1.927       .  S
O77          C86   1.255       .  A
O77         Al84   1.899       .  S
O78         Al84   1.890       .  S
O79          C86   1.256       .  A
O80         Al84   1.782       .  S
O81          C82   1.271       .  A
C82         C673   1.476       .  S
C83         C496   1.485       .  S
C86         C481   1.478       .  S
C87          O88   1.261       .  A
C87         C517   1.471       .  S
O89         C104   1.265       .  A
O89        Al793   1.904   1_554  S
C90         O100   1.272       .  A
C90          O91   1.266       .  A
C90         C421   1.485       .  S
O91         Al93   1.881       .  S
O92          C94   1.258       .  A
O92         Al93   1.897       .  S
Al93        O101   1.895       .  S
Al93        O799   1.914       .  S
Al93        O102   1.782       .  S
C94         O107   1.260       .  A
C94         C469   1.475       .  S
O95         C105   1.260       .  A
O95         Al97   1.912       .  S
O96         C109   1.264       .  A
O96        Al106   1.931       .  S
Al97        O107   1.911       .  S
Al97        O785   1.903       .  S
Al97        O806   1.863       .  S
Al97        O102   1.787       .  S
O98         C105   1.255       .  A
O98        Al106   1.876       .  S
O99         C108   1.254       .  A
O99        Al106   1.902       .  S
O100       Al106   1.938       .  S
O101        C108   1.254       .  A
O102       Al106   1.789       .  S
O103        C104   1.266       .  A
O103       Al789   1.914   1_554  S
C104        C433   1.462       .  S
C105        C445   1.486       .  S
C108        C628   1.481       .  S
C109        O806   1.254       .  A
C109       C1153   1.467       .  S
O110        C805   1.254   1_554  A
O110       Al793   1.860   1_554  S
O111        C126   1.263       .  A
O111       Al815   1.886       .  S
C112        O122   1.263       .  A
C112        O113   1.266       .  A
C112        C604   1.485       .  S
O113       Al115   1.909       .  S
O114        C116   1.257       .  A
O114       Al115   1.899   1_455  S
Al115       O123   1.893       .  S
Al115       O821   1.926   1_655  S
Al115       O124   1.777       .  S
C116        O129   1.258   1_455  A
C116        C640   1.489       .  S
O117        C127   1.268       .  A
O117       Al119   1.908       .  S
O118        C131   1.262       .  A
O118       Al128   1.925       .  S
Al119       O132   1.904       .  S
Al119       O129   1.915       .  S
Al119       O807   1.883   1_554  S
Al119       O124   1.784       .  S
O120        C127   1.269       .  A
O120       Al128   1.922       .  S
O121        C130   1.259       .  A
O121       Al128   1.910       .  S
O122       Al128   1.895       .  S
O123        C130   1.258       .  A
O124       Al128   1.780       .  S
O125        C126   1.268   1_455  A
O125       Al811   1.923   1_455  S
C126        C592   1.465       .  S
C127        C412   1.485       .  S
C130        C385   1.485       .  S
C131        O132   1.260       .  A
C131       C1093   1.468   1_554  S
O133        C148   1.266   1_545  A
O133       Al141   1.910       .  S
C134        O144   1.276       .  A
C134        O135   1.267   1_545  A
C134        C364   1.481       .  S
O135       Al137   1.878       .  S
O136        C138   1.257       .  A
O136       Al137   1.900       .  S
Al137       O145   1.891   1_565  S
Al137       O147   1.917       .  S
Al137       O146   1.789   1_565  S
C138        O151   1.257       .  A
C138        C448   1.470       .  S
O139        C149   1.257       .  A
O139       Al141   1.906       .  S
O140        C153   1.266       .  A
O140       Al150   1.934       .  S
Al141       O154   1.856       .  S
Al141       O151   1.902   1_545  S
Al141       O146   1.793       .  S
O142        C149   1.255       .  A
O142       Al150   1.891       .  S
O143        C152   1.252       .  A
O143       Al150   1.911       .  S
O144       Al150   1.942       .  S
O145        C152   1.250       .  A
O146       Al150   1.793       .  S
O147        C148   1.268       .  A
C148        C373   1.466       .  S
C149        C616   1.495       .  S
C152        C508   1.488       .  S
C153        O154   1.256       .  A
C153        C400   1.473       .  S
O155        C170   1.262       .  A
O155       Al163   1.878       .  S
C156        O166   1.267       .  A
C156        O157   1.268       .  A
C156        C361   1.476       .  S
O157       Al159   1.919       .  S
O158        C160   1.253       .  A
O158       Al159   1.879   1_545  S
Al159       O167   1.886       .  S
Al159       O169   1.931       .  S
Al159       O168   1.775       .  S
C160        O173   1.258   1_545  A
C160        C409   1.489       .  S
O161        C171   1.266       .  A
O161       Al163   1.913       .  S
O162        C175   1.263       .  A
O162       Al172   1.916       .  S
Al163       O176   1.912       .  S
Al163       O173   1.919       .  S
Al163       O168   1.790       .  S
O164        C171   1.268       .  A
O164       Al172   1.926       .  S
O165        C174   1.256       .  A
O165       Al172   1.916       .  S
O166       Al172   1.890       .  S
O167        C174   1.254       .  A
O168       Al172   1.786       .  S
O169        C170   1.268       .  A
C170        C376   1.487       .  S
C171        C349   1.489       .  S
C174        C337   1.484       .  S
C175        O176   1.263       .  A
C175        C460   1.464       .  S
O177        C192   1.263       .  A
O177       Al185   1.890       .  S
C178        O188   1.262       .  A
C178        O179   1.266       .  A
C178        C301   1.479       .  S
O179       Al181   1.910       .  S
O180        C182   1.255       .  A
O180       Al181   1.895   1_655  S
Al181       O189   1.884       .  S
Al181       O191   1.925       .  S
Al181       O190   1.778       .  S
C182        O195   1.260   1_655  A
C182        C325   1.489       .  S
O183        C193   1.267       .  A
O183       Al185   1.910       .  S
O184        C197   1.262       .  A
O184       Al194   1.918       .  S
Al185       O198   1.907       .  S
Al185       O195   1.915       .  S
Al185       O190   1.782       .  S
O186        C193   1.268       .  A
O186       Al194   1.926       .  S
O187        C196   1.258       .  A
O187       Al194   1.911       .  S
O188       Al194   1.885       .  S
O189        C196   1.255       .  A
O190       Al194   1.782       .  S
O191        C192   1.268       .  A
C192        C316   1.474       .  S
C193        C529   1.485       .  S
C196        C568   1.475       .  S
C197        O198   1.261       .  A
C197        C292   1.465       .  S
O199        C214   1.262       .  A
O199       Al207   1.890       .  S
C200        O210   1.274       .  A
C200        O201   1.264       .  A
C200        C556   1.489       .  S
O201       Al203   1.875       .  S
O202        C204   1.259       .  A
O202       Al203   1.898   1_545  S
Al203       O211   1.886       .  S
Al203       O213   1.921       .  S
Al203       O212   1.785       .  S
C204        O217   1.262   1_545  A
C204        C493   1.476       .  S
O205        C215   1.254       .  A
O205       Al207   1.893       .  S
O206        C219   1.268       .  A
O206       Al216   1.943       .  S
Al207       O220   1.864       .  S
Al207       O217   1.913       .  S
Al207       O212   1.791       .  S
O208        C215   1.256       .  A
O208       Al216   1.896       .  S
O209        C218   1.254       .  A
O209       Al216   1.911       .  S
O210       Al216   1.946       .  S
O211        C218   1.252       .  A
O212       Al216   1.795       .  S
O213        C214   1.266       .  A
C214        C541   1.471   1_565  S
C215        C280   1.490       .  S
C218        C340   1.491       .  S
C219        O220   1.257       .  A
C219        C289   1.476       .  S
O221        C236   1.257       .  A
O221       Al229   1.855       .  S
C222        O232   1.264       .  A
C222        O223   1.272       .  A
C222        C424   1.485       .  S
O223       Al225   1.934       .  S
O224        C226   1.251       .  A
O224       Al225   1.880       .  S
Al225       O233   1.880       .  S
Al225       O235   1.951       .  S
Al225       O234   1.774       .  S
C226        O239   1.259       .  A
C226        C352   1.491       .  S
O227        C237   1.265       .  A
O227       Al229   1.901       .  S
O228        C241   1.265       .  A
O228       Al238   1.922       .  S
Al229       O242   1.921       .  S
Al229       O239   1.924       .  S
Al229       O234   1.782       .  S
O230        C237   1.270       .  A
O230       Al238   1.937       .  S
O231        C240   1.259       .  A
O231       Al238   1.927       .  S
O232       Al238   1.879       .  S
O233        C240   1.252       .  A
O234       Al238   1.782       .  S
O235        C236   1.273       .  A
C236        C436   1.485       .  S
C237        C328   1.482       .  S
C240        C484   1.487       .  S
C241        O242   1.264       .  A
C241        C265   1.469       .  S
O243        C258   1.263       .  A
O243       Al251   1.884       .  S
C244        O254   1.264       .  A
C244        O245   1.266   1_655  A
C244        C304   1.477       .  S
O245       Al943   1.908       .  S
O246        C248   1.255       .  A
O246       Al247   1.895       .  S
Al247       O255   1.892   1_455  S
Al247       O257   1.931       .  S
Al247       O941   1.907       .  S
Al247       O256   1.778   1_455  S
C248        O261   1.259   1_455  A
C248        C277   1.489       .  S
O249        C259   1.266       .  A
O249       Al251   1.910       .  S
O250        C263   1.261       .  A
O250       Al260   1.917       .  S
Al251       O264   1.913       .  S
Al251       O261   1.915       .  S
Al251       O256   1.788       .  S
O252        C259   1.269       .  A
O252       Al260   1.924       .  S
O253        C262   1.257       .  A
O253       Al260   1.907       .  S
O254       Al956   1.891       .  S
O255        C262   1.257       .  A
O256       Al260   1.781       .  S
O257        C258   1.270   1_455  A
C258        C313   1.476       .  S
C259        C472   1.483   1_554  S
Al260       O950   1.891   1_554  S
C262        C388   1.476       .  S
C263        O264   1.260       .  A
C263        C268   1.467       .  S
C265        C266   1.404       .  A
C265        C270   1.405       .  A
C266        C267   1.401       .  A
C266        H271   1.084       .  S
C267        C268   1.404       .  A
C267        O272   1.372       .  S
C268        C269   1.403       .  A
C269        C270   1.402       .  A
C269        H273   1.083       .  S
C270        O274   1.371       .  S
O272        H276   0.992       .  S
O274        H275   0.991       .  S
C277        C278   1.407       .  A
C277        C282   1.412       .  A
C278        C279   1.401       .  A
C278        H283   1.083       .  S
C279        C280   1.414       .  A
C279        O284   1.372       .  S
C280        C281   1.406       .  A
C281        C282   1.402       .  A
C281        H285   1.083       .  S
C282        O286   1.372       .  S
O284        H288   0.992       .  S
O286        H287   0.992       .  S
C289        C290   1.403       .  A
C289        C294   1.411       .  A
C290        C291   1.406       .  A
C290        H295   1.083       .  S
C291        C292   1.407       .  A
C291        O296   1.371       .  S
C292        C293   1.398       .  A
C293        C294   1.397       .  A
C293        H297   1.084       .  S
C294        O298   1.373       .  S
O296        H300   0.991       .  S
O298        H299   0.992       .  S
C301        C302   1.406   1_455  A
C301        C306   1.410       .  A
C302        C303   1.398       .  A
C302        H307   1.084       .  S
C303        C304   1.409       .  A
C303        O308   1.372       .  S
C304        C305   1.404   1_655  A
C305        C306   1.396       .  A
C305        H309   1.084       .  S
C306        O310   1.372       .  S
O308        H312   0.991       .  S
O310        H311   0.992       .  S
C313        C314   1.405       .  A
C313        C318   1.409   1_655  A
C314        C315   1.397       .  A
C314        H319   1.081       .  S
C315        C316   1.408   1_655  A
C315        O320   1.372       .  S
C316        C317   1.404       .  A
C317        C318   1.398       .  A
C317        H321   1.080       .  S
C318        O322   1.372       .  S
O320        H324   0.992       .  S
O322        H323   0.992       .  S
C325        C326   1.408       .  A
C325        C330   1.413       .  A
C326        C327   1.401       .  A
C326        H331   1.083       .  S
C327        C328   1.409       .  A
C327        O332   1.371       .  S
C328        C329   1.404       .  A
C329        C330   1.403       .  A
C329        H333   1.084       .  S
C330        O334   1.372       .  S
O332        H336   0.993       .  S
O334        H335   0.991       .  S
C337        C338   1.407       .  A
C337        C342   1.409       .  A
C338        C339   1.408       .  A
C338        H343   1.083       .  S
C339        C340   1.414       .  A
C339        O344   1.371       .  S
C340        C341   1.407       .  A
C341        C342   1.396       .  A
C341        H345   1.083   1_565  S
C342        O346   1.372   1_565  S
O344        H348   0.992       .  S
O346        H347   0.992       .  S
C349        C350   1.405       .  A
C349        C354   1.411       .  A
C350        C351   1.399       .  A
C350        H355   1.084       .  S
C351        C352   1.415       .  A
C351        O356   1.372       .  S
C352        C353   1.407       .  A
C353        C354   1.405       .  A
C353        H357   1.083       .  S
C354        O358   1.371       .  S
O356        H360   0.992       .  S
O358        H359   0.992       .  S
C361        C362   1.400       .  A
C361        C366   1.411   1_565  A
C362        C363   1.396       .  A
C362        H367   1.084       .  S
C363        C364   1.412   1_565  A
C363        O368   1.372       .  S
C364        C365   1.405       .  A
C365        C366   1.403       .  A
C365        H369   1.084       .  S
C366        O370   1.372       .  S
O368        H372   0.992       .  S
O370        H371   0.992       .  S
C373        C374   1.401   1_565  A
C373        C378   1.404       .  A
C374       C1071   1.405       .  A
C374        H379   1.084       .  S
C375        C376   1.415   1_545  A
C375       C1070   1.405   1_554  A
C375        O380   1.371       .  S
C376        C377   1.407       .  A
C377       C1074   1.393   1_554  A
C377        H381   1.083       .  S
C378       C1073   1.393       .  A
C378        O382   1.372       .  S
O380        H384   0.992       .  S
O382        H383   0.992       .  S
C385        C386   1.406       .  A
C385        C390   1.413       .  A
C386        C387   1.399       .  A
C386        H391   1.084   1_655  S
C387        C388   1.408       .  A
C387       O1088   1.372   1_655  S
C388        C389   1.403       .  A
C389        C390   1.403       .  A
C389        H393   1.084       .  S
C390        O394   1.371       .  S
O392       C1083   1.372   1_455  S
O392        H396   0.992       .  S
O394        H395   0.992       .  S
C397        C827   1.468       .  S
C397        C398   1.405       .  A
C397        C402   1.404       .  A
C398        C399   1.407       .  A
C398        H403   1.082       .  S
C399        C400   1.405       .  A
C399        O404   1.371       .  S
C400        C401   1.405       .  A
C401        C402   1.394       .  A
C401        H405   1.084       .  S
C402       O1102   1.372       .  S
O404        H408   0.991       .  S
O406       C1098   1.372   1_554  S
O406        H407   0.993       .  S
C409        C410   1.406       .  A
C409        C414   1.414       .  A
C410        C411   1.396       .  A
C410        H415   1.084       .  S
C411        C412   1.410       .  A
C411        O416   1.373       .  S
C412        C413   1.406       .  A
C413        C414   1.406       .  A
C413        H417   1.083       .  S
C414        O418   1.372       .  S
O416        H420   0.992       .  S
O418        H419   0.992       .  S
C421        C422   1.405       .  A
C421        C426   1.412       .  A
C422        C423   1.395       .  A
C422        H427   1.083       .  S
C423        C424   1.412       .  A
C423        O428   1.372       .  S
C424        C425   1.407       .  A
C425        C426   1.403       .  A
C425        H429   1.084       .  S
C426        O430   1.372       .  S
O428        H432   0.992       .  S
O430        H431   0.992       .  S
C433        C434   1.394       .  A
C433        C438   1.406       .  A
C434        C435   1.389       .  A
C434        H439   1.085       .  S
C435        C436   1.418       .  A
C435        O440   1.372       .  S
C436        C437   1.408       .  A
C437        C438   1.406       .  A
C437        H441   1.083       .  S
C438        O442   1.371       .  S
O440        H444   0.993       .  S
O442        H443   0.991       .  S
C445        C446   1.408       .  A
C445        C450   1.413       .  A
C446        C447   1.398       .  A
C446        H451   1.083       .  S
C447        C448   1.404       .  A
C447        O452   1.372       .  S
C448        C449   1.404       .  A
C449        C450   1.402       .  A
C449        H453   1.084       .  S
C450        O454   1.371       .  S
O452        H456   0.995       .  S
O454        H455   0.993       .  S
C457        C805   1.466   1_554  S
C457        C458   1.404       .  A
C457        C462   1.404       .  A
C458        C459   1.397       .  A
C458        H463   1.083       .  S
C459        C460   1.403       .  A
C459        O464   1.371       .  S
C460        C461   1.405       .  A
C461        C462   1.401       .  A
C461        H465   1.084       .  S
C462       O1162   1.371   1_554  S
O464        H468   0.992       .  S
O466       C1158   1.371       .  S
O466        H467   0.991       .  S
C469        C470   1.401       .  A
C469       C1170   1.411       .  A
C470        C471   1.396       .  A
C470        H475   1.084       .  S
C471       C1168   1.410       .  A
C471        O476   1.371       .  S
C472        C473   1.406   1_556  A
C472       C1167   1.410       .  A
C473        C474   1.406   1_554  A
C473        H477   1.083       .  S
C474       C1165   1.411       .  A
C474        O478   1.372   1_556  S
O476        H480   0.991       .  S
O478        H479   0.992       .  S
C481        C482   1.400       .  A
C481        C486   1.410       .  A
C482        C483   1.399       .  A
C482        H487   1.084       .  S
C483        C484   1.415       .  A
C483        O488   1.372       .  S
C484        C485   1.406       .  A
C485        C486   1.405       .  A
C485        H489   1.083       .  S
C486        O490   1.372       .  S
O488        H492   0.992       .  S
O490        H491   0.992       .  S
C493        C494   1.404       .  A
C493        C498   1.409       .  A
C494        C495   1.404       .  A
C494        H499   1.084       .  S
C495        C496   1.412       .  A
C495        O500   1.371       .  S
C496        C497   1.405       .  A
C497        C498   1.397       .  A
C497        H501   1.084       .  S
C498        O502   1.372       .  S
O500        H504   0.991       .  S
O502        H503   0.992       .  S
C505        C506   1.406       .  A
C505        C510   1.415       .  A
C506        C507   1.397       .  A
C506        H511   1.083       .  S
C507        C508   1.411       .  A
C507        O512   1.372   1_545  S
C508        C509   1.406       .  A
C509        C510   1.408       .  A
C509        H513   1.083       .  S
C510        O514   1.371       .  S
O512        H516   0.992   1_565  S
O514        H515   0.991       .  S
C517        C518   1.400       .  A
C517        C522   1.410       .  A
C518        C519   1.401       .  A
C518        H523   1.084       .  S
C519        C520   1.411       .  A
C519        O524   1.370       .  S
C520        C521   1.401       .  A
C521        C522   1.402       .  A
C521        H525   1.084       .  S
C522        O526   1.371       .  S
O524        H528   0.992       .  S
O526        H527   0.992       .  S
C529        C530   1.404       .  A
C529        C534   1.411       .  A
C530        C531   1.404       .  A
C530        H535   1.083       .  S
C531        C532   1.414       .  A
C531        O536   1.372       .  S
C532        C533   1.406       .  A
C533        C534   1.400       .  A
C533        H537   1.084       .  S
C534        O538   1.372       .  S
O536        H540   0.993       .  S
O538        H539   0.992       .  S
C541        C542   1.401       .  A
C541        C546   1.408   1_545  A
C542        C543   1.387       .  A
C542        H547   1.085       .  S
C543        C544   1.410       .  A
C543        O548   1.372       .  S
C544        C545   1.408       .  A
C545        C546   1.407   1_545  A
C545        H549   1.083   1_545  S
C546        O550   1.371       .  S
O548        H552   0.992       .  S
O550        H551   0.992   1_565  S
C553        C554   1.401       .  A
C553        C558   1.413   1_545  A
C554       C1251   1.396       .  A
C554        H559   1.084       .  S
C555        C556   1.414   1_545  A
C555       C1250   1.397   1_554  A
C555        O560   1.372       .  S
C556        C557   1.406       .  A
C557       C1254   1.407   1_554  A
C557        H561   1.084       .  S
C558       C1253   1.406       .  A
C558        O562   1.372       .  S
O560        H564   0.992       .  S
O562        H563   0.992       .  S
C565        C566   1.402       .  A
C565        C570   1.412       .  A
C566        C567   1.397       .  A
C566        H571   1.084   1_455  S
C567        C568   1.409       .  A
C567        O572   1.372   1_455  S
C568        C569   1.403       .  A
C569        C570   1.403       .  A
C569        H573   1.084       .  S
C570        O574   1.372       .  S
O572        H576   0.992       .  S
O574        H575   0.992       .  S
C577        C578   1.405       .  A
C577        C582   1.416       .  A
C578        C579   1.399       .  A
C578        H583   1.084       .  S
C579        C580   1.410       .  A
C579        O584   1.371       .  S
C580        C581   1.403       .  A
C581        C582   1.402       .  A
C581        H585   1.084       .  S
C582        O586   1.372       .  S
O584        H588   0.991       .  S
O586        H587   0.993       .  S
C589        C590   1.403   1_455  A
C589        C594   1.415       .  A
C590        C591   1.395       .  A
C590        H595   1.084       .  S
C591        C592   1.404       .  A
C591        O596   1.368       .  S
C592        C593   1.398   1_655  A
C593        C594   1.396       .  A
C593        H597   1.084       .  S
C594        O598   1.370       .  S
O596        H600   0.992       .  S
O598        H599   0.993       .  S
C601        C602   1.405   1_455  A
C601        C606   1.409       .  A
C602        C603   1.401       .  A
C602        H607   1.084       .  S
C603        C604   1.413       .  A
C603        O608   1.372       .  S
C604        C605   1.406   1_655  A
C605        C606   1.397       .  A
C605        H609   1.083       .  S
C606        O610   1.372       .  S
O608        H612   0.992       .  S
O610        H611   0.990       .  S
C613        C614   1.406       .  A
C613        C618   1.414       .  A
C614        C615   1.401       .  A
C614        H619   1.083       .  S
C615        C616   1.413       .  A
C615        O620   1.372       .  S
C616        C617   1.408       .  A
C617        C618   1.406       .  A
C617        H621   1.083       .  S
C618        O622   1.371       .  S
O620        H624   0.991       .  S
O622        H623   0.993       .  S
C625        C626   1.409       .  A
C625        C630   1.411       .  A
C626        C627   1.403       .  A
C626       H1327   1.083       .  S
C627        C628   1.409       .  A
C627       O1328   1.372       .  S
C628        C629   1.404       .  A
C629        C630   1.395       .  A
C629        H633   1.084       .  S
C630        O634   1.372       .  S
H631       C1322   1.083       .  S
O632       C1323   1.372       .  S
O632        H636   0.992       .  S
O634        H635   0.993       .  S
C637       C1334   1.404       .  A
C637       C1338   1.411       .  A
C638        C639   1.403       .  A
C638       C1333   1.404       .  A
C638        H643   1.083   1_554  S
C639        C640   1.415       .  A
C639        O644   1.371       .  S
C640        C641   1.406       .  A
C641        C642   1.399       .  A
C641        H645   1.083       .  S
C642       C1333   1.411       .  A
C642       O1342   1.372       .  S
O644        H648   0.992       .  S
O646       C1338   1.372       .  S
O646       H1343   0.991       .  S
H647       O1342   0.991       .  S
C649        C650   1.403       .  A
C649        C654   1.406       .  A
C650        C651   1.406       .  A
C650        H655   1.084       .  S
C651        C652   1.409       .  A
C651        O656   1.372       .  S
C652        C653   1.395       .  A
C653        C654   1.399       .  A
C653        H657   1.084       .  S
C654        O658   1.370       .  S
O656        H660   0.991       .  S
O658        H659   0.992       .  S
C661        C662   1.403       .  A
C661        C666   1.409       .  A
C662        C663   1.401       .  A
C662        H667   1.084       .  S
C663        C664   1.415       .  A
C663        O668   1.371       .  S
C664        C665   1.406       .  A
C665        C666   1.397       .  A
C665        H669   1.083       .  S
C666        O670   1.372       .  S
O668        H672   0.992       .  S
O670        H671   0.992       .  S
C673        C674   1.405       .  A
C673        C678   1.410       .  A
C674        C675   1.395       .  A
C674        H679   1.084       .  S
C675        C676   1.402       .  A
C675        O680   1.371       .  S
C676        C677   1.401       .  A
C677        C678   1.403       .  A
C677        H681   1.083       .  S
C678        O682   1.371       .  S
O680        H684   0.992       .  S
O682        H683   0.992       .  S
C685        C686   1.408       .  A
C685        C690   1.412       .  A
C686        C687   1.401       .  A
C686        H691   1.083       .  S
C687        C688   1.410       .  A
C687        O692   1.371       .  S
C688        C689   1.404       .  A
C689        C690   1.402       .  A
C689        H693   1.084       .  S
C690        O694   1.372       .  S
O692        H696   0.992       .  S
O694        H695   0.992       .  S
O697        C712   1.261       .  A
O697       Al705   1.886       .  S
C698        O708   1.266       .  A
C698        O699   1.267       .  A
C698       C1357   1.477       .  S
O700        C702   1.257       .  A
O700       Al701   1.894       .  S
Al701       O709   1.887       .  S
Al701       O711   1.917       .  S
Al701       O710   1.777       .  S
C702        O715   1.260       .  A
C702       C1381   1.489       .  S
O703        C713   1.262       .  A
O703       Al705   1.909       .  S
O704        C717   1.264       .  A
O704       Al714   1.916       .  S
Al705       O718   1.925       .  S
Al705       O715   1.908       .  S
Al705       O710   1.784       .  S
O706        C713   1.264       .  A
O706       Al714   1.917       .  S
O707        C716   1.257       .  A
O707       Al714   1.911       .  S
O709        C716   1.255       .  A
O710       Al714   1.791       .  S
O711        C712   1.262       .  A
C712       C1372   1.467       .  S
C713       C1333   1.486   1_556  S
C716       C1321   1.483       .  S
C717        O718   1.266       .  A
C717       C1345   1.473       .  S
O719        C734   1.260       .  A
O719       Al727   1.875       .  S
C720        O730   1.264       .  A
C720        O721   1.268       .  A
C720       C1297   1.479       .  S
O721       Al723   1.920       .  S
O722        C724   1.257       .  A
O722       Al723   1.894   1_655  S
Al723       O731   1.895       .  S
Al723       O733   1.927       .  S
Al723       O732   1.774       .  S
C724        O737   1.260   1_655  A
C724       C1309   1.494       .  S
O725        C735   1.266       .  A
O725       Al727   1.903       .  S
O726        C739   1.260       .  A
O726       Al736   1.913       .  S
Al727       O740   1.918       .  S
Al727       O737   1.926       .  S
Al727       O732   1.786       .  S
O728        C735   1.268       .  A
O728       Al736   1.923       .  S
O729        C738   1.255       .  A
O729       Al736   1.898       .  S
O730       Al736   1.885       .  S
O731        C738   1.257       .  A
O732       Al736   1.782       .  S
O733        C734   1.270       .  A
C734       C1285   1.476       .  S
C735       C1276   1.479       .  S
C738       C1261   1.477       .  S
C739        O740   1.263       .  A
C739       C1348   1.467       .  S
O741        C756   1.260       .  A
O741       Al749   1.863       .  S
C742        O752   1.268       .  A
C742        O743   1.270       .  A
C742       C1249   1.485       .  S
O743       Al745   1.927       .  S
O744        C746   1.254       .  A
O744       Al745   1.887   1_565  S
Al745       O753   1.885       .  S
Al745       O755   1.938       .  S
Al745       O754   1.777       .  S
C746        O759   1.257   1_565  A
C746       C1228   1.489       .  S
O747        C757   1.264       .  A
O747       Al749   1.903       .  S
O748        C761   1.265       .  A
O748       Al758   1.928       .  S
Al749       O762   1.922       .  S
Al749       O759   1.913       .  S
Al749       O754   1.788       .  S
O750        C757   1.269       .  A
O750       Al758   1.933       .  S
O751        C760   1.257       .  A
O751       Al758   1.918       .  S
O752       Al758   1.895       .  S
O753        C760   1.254       .  A
O754       Al758   1.783       .  S
O755        C756   1.269       .  A
C756       C1240   1.477       .  S
C757       C1384   1.485       .  S
C760       C1201   1.491       .  S
C761        O762   1.262       .  A
C761       C1216   1.475       .  S
O763        C778   1.264       .  A
O763       Al771   1.876       .  S
C764        O774   1.266       .  A
C764        O765   1.268       .  A
C764       C1360   1.487       .  S
O765       Al767   1.920       .  S
O766        C768   1.255       .  A
O766       Al767   1.893       .  S
Al767       O775   1.895       .  S
Al767       O777   1.932       .  S
Al767       O776   1.779       .  S
C768        O781   1.255       .  A
C768       C1273   1.485       .  S
O769        C779   1.264       .  A
O769       Al771   1.907       .  S
O770        C783   1.261       .  A
O770       Al780   1.919       .  S
Al771       O784   1.920       .  S
Al771       O781   1.900       .  S
Al771       O776   1.790       .  S
O772        C779   1.269       .  A
O772       Al780   1.926       .  S
O773        C782   1.254       .  A
O773       Al780   1.896       .  S
O774       Al780   1.891       .  S
O775        C782   1.255       .  A
O776       Al780   1.782       .  S
O777        C778   1.271       .  A
C778       C1369   1.477       .  S
C779       C1192   1.485       .  S
C782       C1177   1.476       .  S
C783        O784   1.261       .  A
C783       C1213   1.472       .  S
O785        C800   1.265       .  A
C786        O796   1.271       .  A
C786        O787   1.266       .  A
C786       C1117   1.483       .  S
O787       Al789   1.882       .  S
O788        C790   1.258       .  A
O788       Al789   1.899       .  S
Al789       O797   1.892       .  S
Al789       O798   1.780       .  S
C790        O803   1.260       .  A
C790       C1165   1.475       .  S
O791        C801   1.260       .  A
O791       Al793   1.910       .  S
O792        C805   1.263       .  A
O792       Al802   1.931       .  S
Al793       O803   1.911       .  S
Al793       O798   1.786       .  S
O794        C801   1.256       .  A
O794       Al802   1.881       .  S
O795        C804   1.255       .  A
O795       Al802   1.904       .  S
O796       Al802   1.937       .  S
O797        C804   1.254       .  A
O798       Al802   1.790       .  S
O799        C800   1.267       .  A
C800       C1129   1.462       .  S
C801       C1141   1.487       .  S
C804       C1324   1.480       .  S
O807        C822   1.263       .  A
C808        O818   1.263       .  A
C808        O809   1.265       .  A
C808       C1300   1.484       .  S
O809       Al811   1.906       .  S
O810        C812   1.257       .  A
O810       Al811   1.900   1_455  S
Al811       O819   1.894       .  S
Al811       O820   1.779       .  S
C812        O825   1.257   1_455  A
C812       C1336   1.489       .  S
O813        C823   1.268       .  A
O813       Al815   1.909       .  S
O814        C827   1.262       .  A
O814       Al824   1.925       .  S
Al815       O828   1.901       .  S
Al815       O825   1.912       .  S
Al815       O820   1.785       .  S
O816        C823   1.270       .  A
O816       Al824   1.924       .  S
O817        C826   1.259       .  A
O817       Al824   1.913       .  S
O818       Al824   1.895       .  S
O819        C826   1.258       .  A
O820       Al824   1.780       .  S
O821        C822   1.268   1_454  A
C822       C1288   1.466       .  S
C823       C1108   1.485       .  S
C826       C1081   1.487       .  S
C827        O828   1.259       .  A
O829        C844   1.265   1_545  A
O829       Al837   1.908       .  S
C830        O840   1.276       .  A
C830        O831   1.268   1_545  A
C830       C1060   1.481       .  S
O831       Al833   1.879       .  S
O832        C834   1.256       .  A
O832       Al833   1.899       .  S
Al833       O841   1.891   1_565  S
Al833       O843   1.919       .  S
Al833       O842   1.790   1_565  S
C834        O847   1.258       .  A
C834       C1144   1.471       .  S
O835        C845   1.257       .  A
O835       Al837   1.908       .  S
O836        C849   1.266       .  A
O836       Al846   1.932       .  S
Al837       O850   1.860       .  S
Al837       O847   1.905   1_545  S
Al837       O842   1.793       .  S
O838        C845   1.255       .  A
O838       Al846   1.891       .  S
O839        C848   1.252       .  A
O839       Al846   1.910       .  S
O840       Al846   1.942       .  S
O841        C848   1.250       .  A
O842       Al846   1.794       .  S
O843        C844   1.269       .  A
C844       C1069   1.466       .  S
C845       C1312   1.496       .  S
C848       C1204   1.487       .  S
C849        O850   1.256       .  A
C849       C1096   1.473       .  S
O851        C866   1.262       .  A
O851       Al859   1.877       .  S
C852        O862   1.267       .  A
C852        O853   1.268       .  A
C852       C1057   1.476       .  S
O853       Al855   1.919       .  S
O854        C856   1.253       .  A
O854       Al855   1.881   1_545  S
Al855       O863   1.886       .  S
Al855       O865   1.929       .  S
Al855       O864   1.776       .  S
C856        O869   1.258   1_545  A
C856       C1105   1.489       .  S
O857        C867   1.265       .  A
O857       Al859   1.909       .  S
O858        C871   1.263       .  A
O858       Al868   1.917       .  S
Al859       O872   1.912       .  S
Al859       O869   1.918       .  S
Al859       O864   1.789       .  S
O860        C867   1.268       .  A
O860       Al868   1.930       .  S
O861        C870   1.256       .  A
O861       Al868   1.917       .  S
O862       Al868   1.890       .  S
O863        C870   1.254       .  A
O864       Al868   1.787       .  S
O865        C866   1.268       .  A
C866       C1072   1.486       .  S
C867       C1045   1.488       .  S
C870       C1033   1.485       .  S
C871        O872   1.263       .  A
C871       C1156   1.465       .  S
O873        C888   1.263       .  A
O873       Al881   1.886       .  S
C874        O884   1.263       .  A
C874        O875   1.266       .  A
C874        C997   1.478       .  S
O875       Al877   1.908       .  S
O876        C878   1.256       .  A
O876       Al877   1.895   1_655  S
Al877       O885   1.885       .  S
Al877       O887   1.921       .  S
Al877       O886   1.778       .  S
C878        O891   1.260   1_655  A
C878       C1021   1.490       .  S
O879        C889   1.267       .  A
O879       Al881   1.909       .  S
O880        C893   1.262       .  A
O880       Al890   1.917       .  S
Al881       O894   1.908       .  S
Al881       O891   1.916       .  S
Al881       O886   1.781       .  S
O882        C889   1.268       .  A
O882       Al890   1.925       .  S
O883        C892   1.259       .  A
O883       Al890   1.912       .  S
O884       Al890   1.885       .  S
O885        C892   1.256       .  A
O886       Al890   1.781       .  S
O887        C888   1.267       .  A
C888       C1012   1.471       .  S
C889       C1225   1.484       .  S
C892       C1264   1.476       .  S
C893        O894   1.261       .  A
C893        C988   1.465       .  S
O895        C910   1.262       .  A
O895       Al903   1.891       .  S
C896        O906   1.274       .  A
C896        O897   1.264       .  A
C896       C1252   1.488       .  S
O897       Al899   1.874       .  S
O898        C900   1.259       .  A
O898       Al899   1.897   1_545  S
Al899       O907   1.884       .  S
Al899       O909   1.922       .  S
Al899       O908   1.785       .  S
C900        O913   1.262   1_545  A
C900       C1189   1.476       .  S
O901        C911   1.255       .  A
O901       Al903   1.895       .  S
O902        C915   1.268       .  A
O902       Al912   1.940       .  S
Al903       O916   1.865       .  S
Al903       O913   1.914       .  S
Al903       O908   1.791       .  S
O904        C911   1.256       .  A
O904       Al912   1.896       .  S
O905        C914   1.255       .  A
O905       Al912   1.912       .  S
O906       Al912   1.944       .  S
O907        C914   1.252       .  A
O908       Al912   1.795       .  S
O909        C910   1.266       .  A
C910       C1237   1.472   1_565  S
C911        C976   1.491       .  S
C914       C1036   1.492       .  S
C915        O916   1.258       .  A
C915        C985   1.475       .  S
O917        C932   1.258       .  A
O917       Al925   1.857       .  S
C918        O928   1.264       .  A
C918        O919   1.272       .  A
C918       C1120   1.484       .  S
O919       Al921   1.936       .  S
O920        C922   1.252       .  A
O920       Al921   1.882       .  S
Al921       O929   1.879       .  S
Al921       O931   1.950       .  S
Al921       O930   1.775       .  S
C922        O935   1.260       .  A
C922       C1048   1.490       .  S
O923        C933   1.265       .  A
O923       Al925   1.902       .  S
O924        C937   1.265       .  A
O924       Al934   1.920       .  S
Al925       O938   1.922       .  S
Al925       O935   1.923       .  S
Al925       O930   1.781       .  S
O926        C933   1.270       .  A
O926       Al934   1.937       .  S
O927        C936   1.259       .  A
O927       Al934   1.925       .  S
O928       Al934   1.876       .  S
O929        C936   1.252       .  A
O930       Al934   1.781       .  S
O931        C932   1.273       .  A
C932       C1132   1.485       .  S
C933       C1024   1.484       .  S
C936       C1180   1.484       .  S
C937        O938   1.264       .  A
C937        C961   1.469       .  S
O939        C954   1.262       .  A
O939       Al947   1.880       .  S
C940        O950   1.264       .  A
C940        O941   1.266   1_656  A
C940       C1000   1.477       .  S
O942        C944   1.256       .  A
O942       Al943   1.897       .  S
Al943       O951   1.894   1_455  S
Al943       O953   1.927       .  S
Al943       O952   1.779   1_455  S
C944        O957   1.259   1_455  A
C944        C973   1.490       .  S
O945        C955   1.266       .  A
O945       Al947   1.909       .  S
O946        C959   1.261       .  A
O946       Al956   1.916       .  S
Al947       O960   1.914       .  S
Al947       O957   1.915       .  S
Al947       O952   1.788       .  S
O948        C955   1.269       .  A
O948       Al956   1.925       .  S
O949        C958   1.258       .  A
O949       Al956   1.910       .  S
O951        C958   1.257       .  A
O952       Al956   1.781       .  S
O953        C954   1.269   1_455  A
C954       C1009   1.473       .  S
C955       C1168   1.483       .  S
C958       C1084   1.479       .  S
C959        O960   1.261       .  A
C959        C964   1.467       .  S
C961        C962   1.404       .  A
C961        C966   1.405       .  A
C962        C963   1.401       .  A
C962        H967   1.084       .  S
C963        C964   1.404       .  A
C963        O968   1.372       .  S
C964        C965   1.403       .  A
C965        C966   1.402       .  A
C965        H969   1.083       .  S
C966        O970   1.371       .  S
O968        H972   0.992       .  S
O970        H971   0.991       .  S
C973        C974   1.407       .  A
C973        C978   1.412       .  A
C974        C975   1.401       .  A
C974        H979   1.083       .  S
C975        C976   1.414       .  A
C975        O980   1.372       .  S
C976        C977   1.406       .  A
C977        C978   1.402       .  A
C977        H981   1.083       .  S
C978        O982   1.372       .  S
O980        H984   0.992       .  S
O982        H983   0.992       .  S
C985        C986   1.402       .  A
C985        C990   1.411       .  A
C986        C987   1.405       .  A
C986        H991   1.083       .  S
C987        C988   1.407       .  A
C987        O992   1.370       .  S
C988        C989   1.398       .  A
C989        C990   1.397       .  A
C989        H993   1.084       .  S
C990        O994   1.373       .  S
O992        H996   0.991       .  S
O994        H995   0.992       .  S
C997        C998   1.406   1_455  A
C997       C1002   1.410       .  A
C998        C999   1.398       .  A
C998       H1003   1.084       .  S
C999       C1000   1.409       .  A
C999       O1004   1.372       .  S
C1000      C1001   1.405   1_655  A
C1001      C1002   1.396       .  A
C1001      H1005   1.084       .  S
C1002      O1006   1.372       .  S
O1004      H1008   0.991       .  S
O1006      H1007   0.992       .  S
C1009      C1010   1.405       .  A
C1009      C1014   1.408   1_655  A
C1010      C1011   1.396       .  A
C1010      H1015   1.081       .  S
C1011      C1012   1.407   1_655  A
C1011      O1016   1.372       .  S
C1012      C1013   1.403       .  A
C1013      C1014   1.396       .  A
C1013      H1017   1.080       .  S
C1014      O1018   1.372       .  S
O1016      H1020   0.992       .  S
O1018      H1019   0.992       .  S
C1021      C1022   1.408       .  A
C1021      C1026   1.413       .  A
C1022      C1023   1.401       .  A
C1022      H1027   1.083       .  S
C1023      C1024   1.409       .  A
C1023      O1028   1.371       .  S
C1024      C1025   1.405       .  A
C1025      C1026   1.403       .  A
C1025      H1029   1.084       .  S
C1026      O1030   1.372       .  S
O1028      H1032   0.993       .  S
O1030      H1031   0.991       .  S
C1033      C1034   1.407       .  A
C1033      C1038   1.409       .  A
C1034      C1035   1.408       .  A
C1034      H1039   1.083       .  S
C1035      C1036   1.413       .  A
C1035      O1040   1.371       .  S
C1036      C1037   1.407       .  A
C1037      C1038   1.396       .  A
C1037      H1041   1.083   1_565  S
C1038      O1042   1.372   1_565  S
O1040      H1044   0.992       .  S
O1042      H1043   0.992       .  S
C1045      C1046   1.405       .  A
C1045      C1050   1.411       .  A
C1046      C1047   1.400       .  A
C1046      H1051   1.084       .  S
C1047      C1048   1.415       .  A
C1047      O1052   1.372       .  S
C1048      C1049   1.407       .  A
C1049      C1050   1.404       .  A
C1049      H1053   1.083       .  S
C1050      O1054   1.371       .  S
O1052      H1056   0.992       .  S
O1054      H1055   0.992       .  S
C1057      C1058   1.400       .  A
C1057      C1062   1.411   1_565  A
C1058      C1059   1.395       .  A
C1058      H1063   1.084       .  S
C1059      C1060   1.412   1_565  A
C1059      O1064   1.372       .  S
C1060      C1061   1.406       .  A
C1061      C1062   1.404       .  A
C1061      H1065   1.084       .  S
C1062      O1066   1.372       .  S
O1064      H1068   0.992       .  S
O1066      H1067   0.991       .  S
C1069      C1070   1.401   1_565  A
C1069      C1074   1.404       .  A
C1070      H1075   1.084       .  S
C1071      C1072   1.415   1_545  A
C1071      O1076   1.371       .  S
C1072      C1073   1.407       .  A
C1073      H1077   1.083       .  S
C1074      O1078   1.372       .  S
O1076      H1080   0.992       .  S
O1078      H1079   0.992       .  S
C1081      C1082   1.406       .  A
C1081      C1086   1.414       .  A
C1082      C1083   1.399       .  A
C1082      H1087   1.083   1_655  S
C1083      C1084   1.408       .  A
C1084      C1085   1.404       .  A
C1085      C1086   1.405       .  A
C1085      H1089   1.084       .  S
C1086      O1090   1.371       .  S
O1088      H1092   0.992       .  S
O1090      H1091   0.992       .  S
C1093      C1094   1.405       .  A
C1093      C1098   1.403       .  A
C1094      C1095   1.407       .  A
C1094      H1099   1.082       .  S
C1095      C1096   1.405       .  A
C1095      O1100   1.371       .  S
C1096      C1097   1.405       .  A
C1097      C1098   1.394       .  A
C1097      H1101   1.084       .  S
O1100      H1104   0.991       .  S
O1102      H1103   0.992       .  S
C1105      C1106   1.406       .  A
C1105      C1110   1.414       .  A
C1106      C1107   1.397       .  A
C1106      H1111   1.084       .  S
C1107      C1108   1.410       .  A
C1107      O1112   1.373       .  S
C1108      C1109   1.406       .  A
C1109      C1110   1.407       .  A
C1109      H1113   1.083       .  S
C1110      O1114   1.372       .  S
O1112      H1116   0.992       .  S
O1114      H1115   0.992       .  S
C1117      C1118   1.403       .  A
C1117      C1122   1.412       .  A
C1118      C1119   1.395       .  A
C1118      H1123   1.084       .  S
C1119      C1120   1.413       .  A
C1119      O1124   1.372       .  S
C1120      C1121   1.406       .  A
C1121      C1122   1.404       .  A
C1121      H1125   1.083       .  S
C1122      O1126   1.371       .  S
O1124      H1128   0.992       .  S
O1126      H1127   0.992       .  S
C1129      C1130   1.395       .  A
C1129      C1134   1.406       .  A
C1130      C1131   1.389       .  A
C1130      H1135   1.085       .  S
C1131      C1132   1.418       .  A
C1131      O1136   1.372       .  S
C1132      C1133   1.409       .  A
C1133      C1134   1.406       .  A
C1133      H1137   1.083       .  S
C1134      O1138   1.371       .  S
O1136      H1140   0.993       .  S
O1138      H1139   0.991       .  S
C1141      C1142   1.408       .  A
C1141      C1146   1.413       .  A
C1142      C1143   1.399       .  A
C1142      H1147   1.083       .  S
C1143      C1144   1.405       .  A
C1143      O1148   1.372       .  S
C1144      C1145   1.403       .  A
C1145      C1146   1.402       .  A
C1145      H1149   1.084       .  S
C1146      O1150   1.371       .  S
O1148      H1152   0.995       .  S
O1150      H1151   0.993       .  S
C1153      C1154   1.405       .  A
C1153      C1158   1.403       .  A
C1154      C1155   1.399       .  A
C1154      H1159   1.083       .  S
C1155      C1156   1.403       .  A
C1155      O1160   1.371       .  S
C1156      C1157   1.405       .  A
C1157      C1158   1.401       .  A
C1157      H1161   1.084       .  S
O1160      H1164   0.992       .  S
O1162      H1163   0.991       .  S
C1165      C1166   1.401       .  A
C1166      C1167   1.396       .  A
C1166      H1171   1.084       .  S
C1167      O1172   1.371       .  S
C1168      C1169   1.407       .  A
C1169      C1170   1.407       .  A
C1169      H1173   1.083       .  S
C1170      O1174   1.372       .  S
O1172      H1176   0.991       .  S
O1174      H1175   0.992       .  S
C1177      C1178   1.400       .  A
C1177      C1182   1.409       .  A
C1178      C1179   1.399       .  A
C1178      H1183   1.084       .  S
C1179      C1180   1.414       .  A
C1179      O1184   1.372       .  S
C1180      C1181   1.405       .  A
C1181      C1182   1.404       .  A
C1181      H1185   1.083       .  S
C1182      O1186   1.372       .  S
O1184      H1188   0.992       .  S
O1186      H1187   0.992       .  S
C1189      C1190   1.404       .  A
C1189      C1194   1.409       .  A
C1190      C1191   1.404       .  A
C1190      H1195   1.084       .  S
C1191      C1192   1.412       .  A
C1191      O1196   1.371       .  S
C1192      C1193   1.405       .  A
C1193      C1194   1.396       .  A
C1193      H1197   1.084       .  S
C1194      O1198   1.372       .  S
O1196      H1200   0.991       .  S
O1198      H1199   0.992       .  S
C1201      C1202   1.406       .  A
C1201      C1206   1.415       .  A
C1202      C1203   1.397       .  A
C1202      H1207   1.083       .  S
C1203      C1204   1.411       .  A
C1203      O1208   1.372   1_545  S
C1204      C1205   1.405       .  A
C1205      C1206   1.407       .  A
C1205      H1209   1.083       .  S
C1206      O1210   1.371       .  S
O1208      H1212   0.992   1_565  S
O1210      H1211   0.991       .  S
C1213      C1214   1.400       .  A
C1213      C1218   1.410       .  A
C1214      C1215   1.402       .  A
C1214      H1219   1.084       .  S
C1215      C1216   1.410       .  A
C1215      O1220   1.370       .  S
C1216      C1217   1.402       .  A
C1217      C1218   1.403       .  A
C1217      H1221   1.084       .  S
C1218      O1222   1.371       .  S
O1220      H1224   0.992       .  S
O1222      H1223   0.992       .  S
C1225      C1226   1.404       .  A
C1225      C1230   1.410       .  A
C1226      C1227   1.404       .  A
C1226      H1231   1.084       .  S
C1227      C1228   1.414       .  A
C1227      O1232   1.372       .  S
C1228      C1229   1.406       .  A
C1229      C1230   1.400       .  A
C1229      H1233   1.084       .  S
C1230      O1234   1.372       .  S
O1232      H1236   0.993       .  S
O1234      H1235   0.992       .  S
C1237      C1238   1.401       .  A
C1237      C1242   1.408   1_545  A
C1238      C1239   1.387       .  A
C1238      H1243   1.085       .  S
C1239      C1240   1.409       .  A
C1239      O1244   1.372       .  S
C1240      C1241   1.408       .  A
C1241      C1242   1.408   1_545  A
C1241      H1245   1.083   1_545  S
C1242      O1246   1.371       .  S
O1244      H1248   0.992       .  S
O1246      H1247   0.992   1_565  S
C1249      C1250   1.401       .  A
C1249      C1254   1.414   1_545  A
C1250      H1255   1.084       .  S
C1251      C1252   1.414   1_545  A
C1251      O1256   1.372       .  S
C1252      C1253   1.406       .  A
C1253      H1257   1.084       .  S
C1254      O1258   1.372       .  S
O1256      H1260   0.992       .  S
O1258      H1259   0.992       .  S
C1261      C1262   1.401       .  A
C1261      C1266   1.411       .  A
C1262      C1263   1.397       .  A
C1262      H1267   1.084   1_455  S
C1263      C1264   1.409       .  A
C1263      O1268   1.372   1_455  S
C1264      C1265   1.404       .  A
C1265      C1266   1.403       .  A
C1265      H1269   1.084       .  S
C1266      O1270   1.372       .  S
O1268      H1272   0.992       .  S
O1270      H1271   0.992       .  S
C1273      C1274   1.405       .  A
C1273      C1278   1.416       .  A
C1274      C1275   1.399       .  A
C1274      H1279   1.084       .  S
C1275      C1276   1.410       .  A
C1275      O1280   1.371       .  S
C1276      C1277   1.402       .  A
C1277      C1278   1.401       .  A
C1277      H1281   1.084       .  S
C1278      O1282   1.372       .  S
O1280      H1284   0.991       .  S
O1282      H1283   0.993       .  S
C1285      C1286   1.402   1_455  A
C1285      C1290   1.414       .  A
C1286      C1287   1.394       .  A
C1286      H1291   1.084       .  S
C1287      C1288   1.405       .  A
C1287      O1292   1.368       .  S
C1288      C1289   1.399   1_655  A
C1289      C1290   1.397       .  A
C1289      H1293   1.084       .  S
C1290      O1294   1.370       .  S
O1292      H1296   0.992       .  S
O1294      H1295   0.993       .  S
C1297      C1298   1.405   1_455  A
C1297      C1302   1.408       .  A
C1298      C1299   1.401       .  A
C1298      H1303   1.084       .  S
C1299      C1300   1.412       .  A
C1299      O1304   1.372       .  S
C1300      C1301   1.406   1_655  A
C1301      C1302   1.396       .  A
C1301      H1305   1.083       .  S
C1302      O1306   1.372       .  S
O1304      H1308   0.992       .  S
O1306      H1307   0.990       .  S
C1309      C1310   1.406       .  A
C1309      C1314   1.414       .  A
C1310      C1311   1.402       .  A
C1310      H1315   1.083       .  S
C1311      C1312   1.414       .  A
C1311      O1316   1.372       .  S
C1312      C1313   1.408       .  A
C1313      C1314   1.406       .  A
C1313      H1317   1.083       .  S
C1314      O1318   1.371       .  S
O1316      H1320   0.992       .  S
O1318      H1319   0.993       .  S
C1321      C1322   1.409       .  A
C1321      C1326   1.410       .  A
C1322      C1323   1.404       .  A
C1323      C1324   1.410       .  A
C1324      C1325   1.404       .  A
C1325      C1326   1.393       .  A
C1325      H1329   1.084       .  S
C1326      O1330   1.372       .  S
O1328      H1332   0.992       .  S
O1330      H1331   0.993       .  S
C1334      C1335   1.402       .  A
C1334      H1339   1.084       .  S
C1335      C1336   1.415       .  A
C1335      O1340   1.371       .  S
C1336      C1337   1.406       .  A
C1337      C1338   1.399       .  A
C1337      H1341   1.083       .  S
O1340      H1344   0.992       .  S
C1345      C1346   1.403       .  A
C1345      C1350   1.406       .  A
C1346      C1347   1.406       .  A
C1346      H1351   1.083       .  S
C1347      C1348   1.409       .  A
C1347      O1352   1.372       .  S
C1348      C1349   1.394       .  A
C1349      C1350   1.399       .  A
C1349      H1353   1.084       .  S
C1350      O1354   1.369       .  S
O1352      H1356   0.991       .  S
O1354      H1355   0.992       .  S
C1357      C1358   1.402       .  A
C1357      C1362   1.409       .  A
C1358      C1359   1.401       .  A
C1358      H1363   1.084       .  S
C1359      C1360   1.415       .  A
C1359      O1364   1.371       .  S
C1360      C1361   1.406       .  A
C1361      C1362   1.397       .  A
C1361      H1365   1.083       .  S
C1362      O1366   1.372       .  S
O1364      H1368   0.992       .  S
O1366      H1367   0.992       .  S
C1369      C1370   1.405       .  A
C1369      C1374   1.411       .  A
C1370      C1371   1.395       .  A
C1370      H1375   1.084       .  S
C1371      C1372   1.402       .  A
C1371      O1376   1.371       .  S
C1372      C1373   1.402       .  A
C1373      C1374   1.403       .  A
C1373      H1377   1.083       .  S
C1374      O1378   1.371       .  S
O1376      H1380   0.992       .  S
O1378      H1379   0.992       .  S
C1381      C1382   1.408       .  A
C1381      C1386   1.412       .  A
C1382      C1383   1.401       .  A
C1382      H1387   1.083       .  S
C1383      C1384   1.410       .  A
C1383      O1388   1.371       .  S
C1384      C1385   1.405       .  A
C1385      C1386   1.402       .  A
C1385      H1389   1.084       .  S
C1386      O1390   1.372       .  S
O1388      H1392   0.992       .  S
O1390      H1391   0.992       .  S
