geometry optimzed in LAMMPS
_audit_creation_date              2020-11-30 
_audit_creation_method            'lammps2cif' 
_symmetry_space_group_name_H-M    'P1' 
_symmetry_Int_Tables_number       1 
_symmetry_cell_setting            triclinic 
loop_ 
_symmetry_equiv_pos_as_xyz 
  x,y,z 
_cell_length_a                    44.76745782917834 
_cell_length_b                    44.73560792384557 
_cell_length_c                    33.51724673944354 
_cell_angle_alpha                 91.26061065947081 
_cell_angle_beta                  90.2936181063977 
_cell_angle_gamma                 89.08529955654366 
loop_ 
_atom_site_label 
_atom_site_type_symbol 
_atom_site_fract_x 
_atom_site_fract_y 
_atom_site_fract_z 
_atom_site_charge 
O1          O  0.05844095  0.78996609  0.19404646    -0.80880
O2          O  0.17797692  0.75366162  0.15454086    -0.65570
O3          O  0.10123294  0.74475211  0.19366411    -1.12180
C4          C  0.12615998  0.78782499  0.30848969     1.06000
O5          O  0.20067556  0.74477195  0.21429980    -0.78780
O6          O  0.15616944  0.71609175  0.25743904    -0.66360
Ni7        Ni  0.06740447  0.75344657  0.16418865     1.34870
C8          C  0.12943561  0.71189163  0.26848965     0.84740
O9          O  0.12822428  0.72458779  0.12464476    -0.79320
O10         O  0.07854144  0.71860308  0.13512848    -0.89600
C11         C  0.20110739  0.74858798  0.17601362     0.84310
O12         O  0.08223182  0.77601585  0.12173245    -0.67800
O13         O  0.14775045  0.76820977  0.30678608    -0.87090
C14         C  0.10298488  0.79449985  0.12459756     0.85140
C15         C  0.10331420  0.71113097  0.11810376     1.06710
H16         H  0.15202266  0.79183192  0.21397702     0.38510
O17         O  0.14675767  0.77147918  0.21955974    -1.09740
O18         O  0.11074242  0.73383887  0.26961769    -0.66400
Ni19       Ni  0.10791958  0.77007413  0.23677013     1.26350
O20         O  0.12668622  0.78822449  0.14513199    -0.66620
O21         O  0.11570548  0.79774980  0.27705748    -0.78920
C22         C  0.05662290  0.79070470  0.23200349     0.84530
O23         O  0.06897992  0.77078328  0.25178257    -0.66090
Ni24       Ni  0.17321281  0.75569276  0.25863018     1.27450
Ni25       Ni  0.13843207  0.74959259  0.17131801     1.26060
H26         H  0.09955440  0.72444293  0.20213418     0.39070
O27         O  0.96279987  0.81842654  0.13960188    -0.80880
O28         O  0.83405794  0.76174458  0.12211294    -0.65570
O29         O  0.90192855  0.80807906  0.14148550    -1.12180
C30         C  0.91117535  0.73570258  0.24396850     1.06000
O31         O  0.82072454  0.77501521  0.18453637    -0.78780
O32         O  0.86335731  0.78550064  0.25555760    -0.66360
Ni33       Ni  0.93095719  0.81341006  0.10109495     1.34870
C34         C  0.88057282  0.80793655  0.25247148     0.84740
O35         O  0.85620304  0.81048543  0.08681113    -0.79320
O36         O  0.90052893  0.80981846  0.06101043    -0.89600
C37         C  0.81391584  0.76748841  0.14801781     0.84310
O38         O  0.93918237  0.77119156  0.09688109    -0.67800
O39         O  0.88354450  0.73065825  0.23776634    -0.87090
C40         C  0.92059508  0.75106135  0.08663747     0.85140
C41         C  0.87572277  0.82324461  0.06636376     1.06710
H42         H  0.88974631  0.74164432  0.16266999     0.38510
O43         O  0.88169750  0.76070900  0.17192406    -1.09740
O44         O  0.88889502  0.81358268  0.21790692    -0.66400
Ni45       Ni  0.91267901  0.78606883  0.18683012     1.26350
O46         O  0.89200045  0.75534364  0.09134738    -0.66620
O47         O  0.92374011  0.76002000  0.23222295    -0.78920
C48         C  0.96258936  0.82082998  0.17762966     0.84530
O49         O  0.94082523  0.81463681  0.19932869    -0.66090
Ni50       Ni  0.85329636  0.75446360  0.21324447     1.27450
Ni51       Ni  0.86909733  0.78379946  0.12811797     1.26060
H52         H  0.89485117  0.82753633  0.15018282     0.39070
O53         O  0.04058191  0.71066713  0.44567134    -0.80880
O54         O  0.00351663  0.58393356  0.46214152    -0.65570
O55         O  0.04532968  0.65090159  0.43036809    -1.12180
C56         C  0.98247197  0.64682309  0.32260606     1.06000
O57         O  0.02107814  0.56244536  0.40558515    -0.78780
O58         O  0.05029425  0.60130325  0.34901225    -0.66360
Ni59       Ni  0.05992817  0.67808990  0.46753851     1.34870
C60         C  0.05933742  0.62744413  0.34030808     0.84740
O61         O  0.04530662  0.61542801  0.00161420    -0.79320
O62         O  0.08202768  0.64535116  0.98863926    -0.89600
C63         C  0.01202897  0.56084058  0.44251638     0.84310
O64         O  0.02392017  0.67755386  0.00149737    -0.67800
O65         O  0.99208014  0.61915559  0.32110439    -0.87090
C66         C  0.99754665  0.66676506  0.99732058     0.85140
C67         C  0.06968254  0.62796484  0.01192429     1.06710
H68         H  0.98157424  0.62301188  0.40749840     0.38510
O69         O  0.00273451  0.62172427  0.40197815    -1.09740
O70         O  0.04447350  0.65047585  0.35007526    -0.66400
Ni71       Ni  0.01647260  0.65977008  0.39093545     1.26350
O72         O  0.99348260  0.64361557  0.47516293    -0.66620
O73         O  0.98765157  0.66456926  0.35164180    -0.78920
C74         C  0.03053758  0.71711229  0.41166925     0.84530
O75         O  0.02924071  0.69890812  0.38270721    -0.66090
Ni76       Ni  0.00862984  0.59166834  0.36306342     1.27450
Ni77       Ni  0.02431788  0.61814072  0.45017575     1.26060
H78         H  0.06275556  0.64250867  0.41739937     0.39070
O79         O  0.96645160  0.81039772  0.51743307    -0.80880
O80         O  0.00110018  0.94478575  0.48638876    -0.65570
O81         O  0.96288012  0.87038735  0.49294045    -1.12180
C82         C  0.02987747  0.84933961  0.38648294     1.06000
O83         O  0.98482756  0.94683840  0.42337434    -0.78780
O84         O  0.97182346  0.89391027  0.36952900    -0.66360
Ni85       Ni  0.96353129  0.84940193  0.54254232     1.34870
C86         C  0.95247360  0.87407046  0.37787336     0.84740
O87         O  0.95670052  0.92496766  0.03298627    -0.79320
O88         O  0.96248151  0.88687369  0.07093495    -0.89600
C89         C  0.99257540  0.95994266  0.45673289     0.84310
O90         O  0.00589651  0.84839120  0.04599982    -0.67800
O91         O  0.03062154  0.87769752  0.38114968    -0.87090
C92         C  0.02402535  0.86983013  0.04502052     0.85140
C93         C  0.94595080  0.90786496  0.05864221     1.06710
H94         H  0.02516317  0.88618939  0.45848001     0.38510
O95         O  0.00481678  0.88991899  0.44996065    -1.09740
O96         O  0.95213092  0.86381049  0.41279279    -0.66400
Ni97       Ni  0.98413825  0.85369245  0.44936076     1.26350
O98         O  0.01625025  0.89551487  0.53042936    -0.66620
O99         O  0.00913930  0.83686793  0.40660893    -0.78920
C100        C  0.96575376  0.80222407  0.48090911     0.84530
O101        O  0.96101435  0.81971335  0.45284844    -0.66090
Ni102      Ni  0.00595047  0.91073593  0.40113678     1.27450
Ni103      Ni  0.98294406  0.90758856  0.49270929     1.26060
H104        H  0.94248679  0.87303270  0.48449748     0.39070
O105        O  0.56554032  0.70056014  0.08436853    -0.80880
O106        O  0.67919364  0.74512582  0.09435128    -0.65570
O107        O  0.59909854  0.74396502  0.06503537    -1.12180
C108        C  0.62100328  0.68755727  0.45631111     1.06000
O109        O  0.69827470  0.74407828  0.03197727    -0.78780
O110        O  0.64719885  0.76453251  0.49022114    -0.66360
Ni111      Ni  0.57087870  0.73978253  0.10562747     1.34870
C112        C  0.61968044  0.76606316  0.48035242     0.84740
O113        O  0.62958264  0.77656850  0.12105057    -0.79320
O114        O  0.57899149  0.77934648  0.12270152    -0.89600
C115        C  0.70097559  0.74652089  0.07039922     0.84310
O116        O  0.59469911  0.72606702  0.14822529    -0.67800
O117        O  0.64127906  0.70762485  0.45324331    -0.87090
C118        C  0.61443891  0.70640532  0.14249571     0.85140
C119        C  0.60467106  0.79133274  0.12612805     1.06710
H120        H  0.65285161  0.69714224  0.04879811     0.38510
O121        O  0.64497481  0.71574736  0.03867269    -1.09740
O122        O  0.60218525  0.74393535  0.98625292    -0.66400
Ni123      Ni  0.60423015  0.71192744  0.02704634     1.26350
O124        O  0.63413659  0.71008810  0.11589037    -0.66620
O125        O  0.61160448  0.68060049  0.48999763    -0.78920
C126        C  0.54972687  0.70610097  0.05419354     0.84530
O127        O  0.56256644  0.70564684  0.02079318    -0.66090
Ni128      Ni  0.66821324  0.72685750  0.99454139     1.27450
Ni129      Ni  0.63856265  0.74479247  0.08100233     1.26060
H130        H  0.59429549  0.76234361  0.05183920     0.39070
O131        O  0.45069535  0.78580237  0.12332792    -0.80880
O132        O  0.33227774  0.74617142  0.11925227    -0.65570
O133        O  0.41359953  0.74376718  0.09698366    -1.12180
C134        C  0.39461026  0.80019306  0.48947756     1.06000
O135        O  0.31709180  0.74246614  0.05485426    -0.78780
O136        O  0.36992645  0.72308507  0.01500242    -0.66360
Ni137      Ni  0.44080305  0.74667522  0.13974487     1.34870
C138        C  0.39802170  0.72132166  0.00839487     0.84740
O139        O  0.37875977  0.71528195  0.15163595    -0.79320
O140        O  0.42879661  0.70771889  0.15382606    -0.89600
C141        C  0.31222651  0.74233622  0.09281656     0.84310
O142        O  0.41518642  0.76338684  0.17954850    -0.67800
O143        O  0.37494809  0.77989117  0.48323481    -0.87090
C144        C  0.39806139  0.78486515  0.17103326     0.85140
C145        C  0.40200222  0.69859997  0.15761003     1.06710
H146        H  0.36087944  0.79086826  0.07646425     0.38510
O147        O  0.36921788  0.77196965  0.06709741    -1.09740
O148        O  0.41489781  0.74348178  0.01793906    -0.66400
Ni149      Ni  0.41029085  0.77529090  0.06023582     1.26350
O150        O  0.37828207  0.78090391  0.14408395    -0.66620
O151        O  0.40465995  0.80622252  0.02423329    -0.78920
C152        C  0.46529374  0.78603483  0.09128690     0.84530
O153        O  0.45172700  0.78119276  0.05849975    -0.66090
Ni154      Ni  0.34769776  0.76029063  0.02093739     1.27450
Ni155      Ni  0.37326037  0.74477723  0.10990154     1.26060
H156        H  0.41802681  0.72502915  0.08333042     0.39070
O157        O  0.50855741  0.54768048  0.33236562    -0.80880
O158        O  0.45215815  0.67810274  0.34240263    -0.65570
O159        O  0.47383574  0.59786454  0.32398628    -1.12180
C160        C  0.53751511  0.64095416  0.22444925     1.06000
O161        O  0.44761720  0.68032081  0.27818449    -0.78780
O162        O  0.46628984  0.64646284  0.21552596    -0.66360
Ni163      Ni  0.48926626  0.57789327  0.36934473     1.34870
C164        C  0.45452355  0.62169507  0.22224320     0.84740
O165        O  0.43604602  0.62845235  0.37343532    -0.79320
O166        O  0.46895960  0.60512258  0.41081007    -0.89600
C167        C  0.45092053  0.69347378  0.31166688     0.84310
O168        O  0.52385797  0.60285109  0.37027626    -0.67800
O169        O  0.52223552  0.66509377  0.22832888    -0.87090
C170        C  0.52214311  0.63102624  0.37703063     0.85140
C171        C  0.44575586  0.62259179  0.40761918     1.06710
H172        H  0.51188707  0.65174094  0.30610075     0.38510
O173        O  0.49334387  0.64560463  0.29399306    -1.09740
O174        O  0.46571799  0.60323875  0.24657325    -0.66400
Ni175      Ni  0.50072375  0.60608878  0.28086059     1.26350
O176        O  0.49717456  0.64521269  0.37217330    -0.66620
O177        O  0.52927334  0.61576544  0.23850168    -0.78920
C178        C  0.51228672  0.54494962  0.29407105     0.84530
O179        O  0.50756710  0.56612845  0.27047582    -0.66090
Ni180      Ni  0.48445837  0.67274885  0.25245408     1.27450
Ni181      Ni  0.46395477  0.63788751  0.33421786     1.26060
H182        H  0.45641647  0.58735030  0.31450380     0.39070
O183        O  0.51753685  0.79381221  0.27737986    -0.80880
O184        O  0.52300329  0.92978787  0.27909331    -0.65730
O185        O  0.54249407  0.84888954  0.28254483    -1.12180
C186        C  0.48374908  0.85882922  0.39944861     1.06000
O187        O  0.54310072  0.93449329  0.34073558    -0.78780
O188        O  0.54678192  0.88644315  0.40269132    -0.66360
Ni189      Ni  0.53554138  0.82036962  0.24207140     1.34870
C190        C  0.56213886  0.86373839  0.39026761     0.84740
O191        O  0.55472835  0.89265964  0.22945121    -0.79320
O192        O  0.55363006  0.84528257  0.20475406    -0.89600
C193        C  0.53520488  0.94542745  0.30668704     0.84310
O194        O  0.49654313  0.83321080  0.22921796    -0.67800
O195        O  0.48582343  0.88726819  0.39814898    -0.87090
C196        C  0.48161458  0.85714314  0.23391651     0.85140
C197        C  0.56301074  0.87202016  0.20470131     1.06710
H198        H  0.48870842  0.88435516  0.31968748     0.38510
O199        O  0.50980507  0.88391411  0.32525045    -1.09740
O200        O  0.55944034  0.85662251  0.35436244    -0.66400
Ni201      Ni  0.52276303  0.84489635  0.33144264     1.26350
O202        O  0.49307176  0.88139376  0.24811072    -0.66620
O203        O  0.50151819  0.84107170  0.38046828    -0.78920
C204        C  0.52309878  0.78864265  0.31366286     0.84530
O205        O  0.53634163  0.80627659  0.33643869    -0.66090
Ni206      Ni  0.51607403  0.90943606  0.37089985     1.27450
Ni207      Ni  0.53118713  0.88890518  0.27718165     1.26060
H208        H  0.56390991  0.84834977  0.28633857     0.39070
O209        O  0.71629655  0.24003192  0.47155644    -0.80880
O210        O  0.58366822  0.19233970  0.45755180    -0.65570
O211        O  0.66511613  0.21027270  0.45641127    -1.12180
C212        C  0.62824045  0.27089754  0.34882714     1.06000
O213        O  0.59465782  0.17943980  0.39629634    -0.78780
O214        O  0.62909895  0.20341700  0.33876264    -0.66360
Ni215      Ni  0.68274030  0.22487893  0.50416623     1.34870
C216        C  0.65228862  0.19007129  0.35050060     0.84740
O217        O  0.62935016  0.17586678  0.00253384    -0.79320
O218        O  0.65220960  0.20805366  0.04211203    -0.89600
C219        C  0.57597406  0.18026469  0.42448918     0.84310
O220        O  0.65971424  0.26073797  0.49857422    -0.67800
O221        O  0.60412961  0.25609564  0.35096290    -0.87090
C222        C  0.63130129  0.26224869  0.99905837     0.85140
C223        C  0.63430615  0.18585234  0.03718774     1.06710
H224        H  0.61072656  0.24865360  0.42628327     0.38510
O225        O  0.62010066  0.23010961  0.41743665    -1.09740
O226        O  0.66732998  0.20023345  0.37955928    -0.66400
Ni227      Ni  0.66042931  0.23643865  0.41133728     1.26350
O228        O  0.61529473  0.23881006  0.49406702    -0.66620
O229        O  0.65300107  0.26310696  0.36611343    -0.78920
C230        C  0.72108842  0.24373177  0.43386909     0.84530
O231        O  0.70108711  0.24262946  0.40723927    -0.66090
Ni232      Ni  0.59839990  0.21776598  0.37263929     1.27450
Ni233      Ni  0.62422578  0.20290460  0.45973929     1.26060
H234        H  0.67548270  0.19190434  0.44896073     0.39070
O235        O  0.47080077  0.25579871  0.39586339    -0.80880
O236        O  0.34279484  0.27676512  0.39614227    -0.65570
O237        O  0.42269043  0.28895139  0.42239814    -1.12180
C238        C  0.40599877  0.22122031  0.02179389     1.06000
O239        O  0.32720709  0.28497164  0.45909055    -0.78780
O240        O  0.37860894  0.30172259  0.50845893    -0.66360
Ni241      Ni  0.45070906  0.29099207  0.38123615     1.34870
C242        C  0.40706152  0.30241836  0.01442502     0.84740
O243        O  0.38455986  0.30917810  0.36032931    -0.79320
O244        O  0.43093256  0.32627095  0.36557794    -0.89600
C245        C  0.32194455  0.28176805  0.42099568     0.84310
O246        O  0.43024850  0.26661005  0.34191397    -0.67800
O247        O  0.38395800  0.23961410  0.02949350    -0.87090
C248        C  0.41431268  0.24461868  0.35115721     0.85140
C249        C  0.40546450  0.32626676  0.34898322     1.06710
H250        H  0.37629012  0.23671773  0.44005258     0.38510
O251        O  0.38202647  0.25636604  0.44958122    -1.09740
O252        O  0.42486181  0.28322379  0.50204008    -0.66400
Ni253      Ni  0.42343888  0.25610066  0.45693443     1.26350
O254        O  0.39317981  0.24796947  0.37579910    -0.66620
O255        O  0.42078037  0.22210435  0.98979714    -0.78920
C256        C  0.47940829  0.24768185  0.42992471     0.84530
O257        O  0.46537937  0.25466868  0.46125895    -0.66090
Ni258      Ni  0.35773589  0.26473827  0.49388935     1.27450
Ni259      Ni  0.38277539  0.28334983  0.40674335     1.26060
H260        H  0.42382293  0.30739246  0.43756384     0.39070
O261        O  0.49305734  0.20594751  0.24722566    -0.80880
O262        O  0.52135671  0.07968331  0.25788463    -0.65570
O263        O  0.52640038  0.15845792  0.22524688    -1.12180
C264        C  0.46132466  0.13570719  0.12652863     1.06000
O265        O  0.52310675  0.05986452  0.19540338    -0.78780
O266        O  0.53997343  0.10870954  0.14857535    -0.66360
Ni267      Ni  0.53061364  0.18971652  0.26341832     1.34870
C268        C  0.54154063  0.13615512  0.13922753     0.84740
O269        O  0.55658437  0.12446504  0.28223311    -0.79320
O270        O  0.56852867  0.17287391  0.27732022    -0.89600
C271        C  0.52375328  0.05757107  0.23380390     0.84310
O272        O  0.51240837  0.17008072  0.30670297    -0.67800
O273        O  0.48077285  0.11439634  0.12109086    -0.87090
C274        C  0.49017172  0.15344697  0.30153092     0.85140
C275        C  0.57538721  0.14571263  0.28455245     1.06710
H276        H  0.47605257  0.10752695  0.21573403     0.38510
O277        O  0.49443344  0.11403884  0.20392896    -1.09740
O278        O  0.51986699  0.15441363  0.14777450    -0.66400
Ni279      Ni  0.49117536  0.15438272  0.19267742     1.26350
O280        O  0.49198243  0.13039962  0.27884026    -0.66620
O281        O  0.45757023  0.14777386  0.16037260    -0.78920
C282        C  0.49105917  0.21412659  0.21135929     0.84530
O283        O  0.48537586  0.19507186  0.18441165    -0.66090
Ni284      Ni  0.50300691  0.08869456  0.15961877     1.27450
Ni285      Ni  0.52466033  0.11922547  0.24327601     1.26060
H286        H  0.54414390  0.15962148  0.20925218     0.39070
O287        O  0.56759134  0.29849784  0.17933244    -0.80880
O288        O  0.53026534  0.41329514  0.21519252    -0.65570
O289        O  0.52540833  0.33677567  0.17182502    -1.12180
C290        C  0.57684098  0.36404703  0.06483839     1.06000
O291        O  0.52859184  0.43770116  0.15719941    -0.78780
O292        O  0.50309738  0.39261612  0.10754355    -0.66360
Ni293      Ni  0.52994047  0.30451661  0.20504753     1.34870
C294        C  0.49950847  0.36584592  0.09469646     0.84740
O295        O  0.49926318  0.36492371  0.23601635    -0.79320
O296        O  0.49235858  0.31504276  0.22933676    -0.89600
C297        C  0.52797667  0.43721018  0.19584667     0.84310
O298        O  0.54925928  0.32115250  0.25018555    -0.67800
O299        O  0.55749344  0.38580742  0.06600850    -0.87090
C300        C  0.56716546  0.34243011  0.25007923     0.85140
C301        C  0.48397045  0.34127382  0.24177018     1.06710
H302        H  0.57400173  0.38772130  0.16209631     0.38510
O303        O  0.55447367  0.38238073  0.15208161    -1.09740
O304        O  0.52129342  0.34676796  0.09504383    -0.66400
Ni305      Ni  0.55523012  0.34298422  0.13284635     1.26350
O306        O  0.56305585  0.36462170  0.22742111    -0.66620
O307        O  0.58463027  0.35137271  0.09616998    -0.78920
C308        C  0.56405617  0.28592443  0.14550873     0.84530
O309        O  0.55833254  0.30247535  0.11656050    -0.66090
Ni310      Ni  0.54210837  0.41023327  0.11324232     1.27450
Ni311      Ni  0.52777886  0.37444543  0.19487555     1.26060
H312        H  0.50620351  0.33445908  0.15948238     0.39070
O313        O  0.05055411  0.28927168  0.31516157    -0.80880
O314        O  0.18265192  0.28731391  0.35852648    -0.65570
O315        O  0.10775014  0.29448106  0.31005618    -1.12180
C316        C  0.13452438  0.21207514  0.23426817     1.06000
O317        O  0.20534421  0.28144945  0.29948822    -0.78780
O318        O  0.16593833  0.29224649  0.23707800    -0.66360
Ni319      Ni  0.08320404  0.29131111  0.35227444     1.34870
C320        C  0.13949694  0.29859694  0.22515717     0.84740
O321        O  0.13462567  0.32850868  0.36542672    -0.79320
O322        O  0.08476567  0.33279847  0.35520664    -0.89600
C323        C  0.20631832  0.28434141  0.33787395     0.84310
O324        O  0.08831807  0.24957525  0.35141363    -0.67800
O325        O  0.15908330  0.22643636  0.22937896    -0.87090
C326        C  0.10825933  0.24525029  0.37708877     0.85140
C327        C  0.10995023  0.34436958  0.36413261     1.06710
H328        H  0.15137305  0.23865644  0.31804765     0.38510
O329        O  0.14928296  0.25641678  0.30232252    -1.09740
O330        O  0.11780977  0.28202659  0.23381566    -0.66400
Ni331      Ni  0.10986152  0.25928790  0.28105323     1.26350
O332        O  0.12973651  0.26429308  0.37913604    -0.66620
O333        O  0.11311937  0.22296362  0.25432699    -0.78920
C334        C  0.04885688  0.26761065  0.28975262     0.84530
O335        O  0.06935961  0.26253459  0.26446252    -0.66090
Ni336      Ni  0.18028051  0.25625382  0.26431601     1.27450
Ni337      Ni  0.14405206  0.29119816  0.33560714     1.26060
H338        H  0.10522782  0.31212322  0.29420156     0.39070
O339        O  0.95771362  0.19615195  0.36456180    -0.80880
O340        O  0.84333773  0.27871180  0.36047420    -0.65570
O341        O  0.90696482  0.22425738  0.35157801    -1.12180
C342        C  0.92606437  0.28779552  0.24630833     1.06000
O343        O  0.83015761  0.25582509  0.30370448    -0.78780
O344        O  0.87404314  0.22617139  0.24979529    -0.66360
Ni345      Ni  0.92888299  0.21560152  0.39789234     1.34870
C346        C  0.89947330  0.21247951  0.25029197     0.84740
O347        O  0.85785667  0.22974002  0.40145849    -0.79320
O348        O  0.89974325  0.23238186  0.43287134    -0.89600
C349        C  0.82324545  0.26762645  0.33840048     0.84310
O350        O  0.94553219  0.25460713  0.39445142    -0.67800
O351        O  0.89825210  0.28238805  0.23870562    -0.87090
C352        C  0.92971160  0.27846875  0.39989553     0.85140
C353        C  0.87418274  0.22147399  0.42972373     1.06710
H354        H  0.89320105  0.29149642  0.32112003     0.38510
O355        O  0.89005365  0.27056877  0.31504109    -1.09740
O356        O  0.91996789  0.22123759  0.27301082    -0.66400
Ni357      Ni  0.92605204  0.24973287  0.31446465     1.26350
O358        O  0.90098757  0.27915592  0.39298633    -0.66620
O359        O  0.94050794  0.27633069  0.27569618    -0.78920
C360        C  0.97051642  0.20544430  0.33369486     0.84530
O361        O  0.96274750  0.22921941  0.31605590    -0.66090
Ni362      Ni  0.86499000  0.26735874  0.27016399     1.27450
Ni363      Ni  0.87529048  0.25186196  0.35913944     1.26060
H364        H  0.89956050  0.20616601  0.33915696     0.39070
O365        O  0.03619313  0.22260823  0.05768402    -0.80880
O366        O  0.00444390  0.10135538  0.00960539    -0.65570
O367        O  0.99608639  0.17600303  0.06247627    -1.12180
C368        C  0.06220111  0.13645389  0.15358918     1.06000
O369        O  0.99288883  0.07877018  0.06671173    -0.78780
O370        O  0.98140721  0.11662989  0.13427312    -0.66360
Ni371      Ni  0.99736356  0.21218785  0.03573302     1.34870
C372        C  0.97723941  0.14359480  0.14704364     0.84740
O373        O  0.97062072  0.15226955  0.49460555    -0.79320
O374        O  0.95974912  0.20014720  0.51360908    -0.89600
C375        C  0.99690612  0.07813418  0.02844325     0.84310
O376        O  0.01662367  0.19891953  0.98822581    -0.67800
O377        O  0.04567444  0.11296000  0.15134990    -0.87090
C378        C  0.03740548  0.17972880  0.48541763     0.85140
C379        C  0.95243900  0.17478893  0.49782227     1.06710
H380        H  0.04683859  0.12571431  0.06486173     0.38510
O381        O  0.02713683  0.12970131  0.07557782    -1.09740
O382        O  0.99614416  0.16354867  0.13992526    -0.66400
Ni383      Ni  0.02610834  0.16812797  0.09919933     1.26350
O384        O  0.03516087  0.15455963  0.00275457    -0.66620
O385        O  0.05698787  0.15947340  0.13376004    -0.78920
C386        C  0.04421962  0.21920229  0.09385052     0.84530
O387        O  0.02677405  0.20723219  0.11736323    -0.66090
Ni388      Ni  0.01735499  0.09798936  0.10934205     1.27450
Ni389      Ni  0.00040614  0.14008373  0.03368162     1.26060
H390        H  0.97715698  0.17570995  0.07585804     0.39070
O391        O  0.08605163  0.31719111  0.03735452    -0.80880
O392        O  0.01773825  0.43957203  0.02297772    -0.65570
O393        O  0.06345286  0.37143944  0.04317892    -1.12180
C394        C  0.99563374  0.36232819  0.14395399     1.06000
O395        O  0.03259213  0.45546703  0.08310720    -0.78780
O396        O  0.06336685  0.40909795  0.13030221    -0.66360
Ni397      Ni  0.07590818  0.34719344  0.99972794     1.34870
C398        C  0.07231552  0.38196123  0.13544413     0.84740
O399        O  0.06809019  0.41930118  0.99330139    -0.79320
O400        O  0.07044738  0.37683686  0.45998543    -0.89600
C401        C  0.02384077  0.46075869  0.04679406     0.84310
O402        O  0.03512071  0.33555457  0.99287056    -0.67800
O403        O  0.00549986  0.38903485  0.15094616    -0.87090
C404        C  0.01356133  0.35379321  0.48521965     0.85140
C405        C  0.07715769  0.40417808  0.46439232     1.06710
H406        H  0.99550454  0.39503929  0.06408582     0.38510
O407        O  0.01619736  0.39512428  0.07238356    -1.09740
O408        O  0.05719571  0.36073334  0.12156387    -0.66400
Ni409      Ni  0.03190481  0.35662956  0.07612706     1.26350
O410        O  0.01517084  0.38227069  0.99293279    -0.66620
O411        O  0.00118291  0.34711697  0.11196818    -0.78920
C412        C  0.07213477  0.30751953  0.06713425     0.84530
O413        O  0.04647792  0.31706497  0.07713166    -0.66090
Ni414      Ni  0.02129270  0.42076983  0.11712012     1.27450
Ni415      Ni  0.04084006  0.40561610  0.03114950     1.26060
H416        H  0.08086236  0.37735889  0.05829607     0.39070
C417        C  0.10059048  0.26029279  0.06781465    -0.12260
C418        C  0.08489953  0.28275122  0.08932951     0.04750
C419        C  0.07468801  0.27644686  0.12834335    -0.07550
C420        C  0.07384896  0.24668067  0.13923217    -0.08290
C421        C  0.07461138  0.22598881  0.10780017    -0.02840
C422        C  0.09586763  0.23059844  0.07799440     0.03970
N423        N  0.10711369  0.20616189  0.05355998     0.66480
H424        H  0.11158226  0.26512854  0.04007619     0.15380
H425        H  0.06215396  0.24135118  0.16626414     0.15090
N426        N  0.05820862  0.29775609  0.15215373     0.74180
O427        O  0.12813645  0.21016153  0.02936948    -0.39270
O428        O  0.09780647  0.17998840  0.05832990    -0.39210
O429        O  0.03005822  0.29730869  0.15048794    -0.39910
O430        O  0.07036421  0.30867761  0.18299820    -0.39980
C431        C  0.90974737  0.19181774  0.18144509    -0.12260
C432        C  0.90884558  0.18684033  0.22254604     0.04750
C433        C  0.92679088  0.16265620  0.23710947    -0.07550
C434        C  0.94727765  0.14695539  0.21145137    -0.08290
C435        C  0.94980029  0.15366294  0.17087293    -0.02840
C436        C  0.92940979  0.17538915  0.15580871     0.03970
N437        N  0.92874188  0.18149496  0.11424781     0.66480
H438        H  0.89652241  0.21006011  0.16946166     0.15380
H439        H  0.96235072  0.13030347  0.22367645     0.15090
N440        N  0.92512344  0.15451388  0.27833266     0.74180
O441        O  0.92703510  0.20816821  0.10278527    -0.39270
O442        O  0.92606053  0.16018031  0.08923496    -0.39210
O443        O  0.90086332  0.15780174  0.29706927    -0.39910
O444        O  0.94655086  0.14065548  0.29465591    -0.39980
C445        C  0.89935879  0.18773647  0.50814987    -0.12260
C446        C  0.92090807  0.17217716  0.48483967     0.04750
C447        C  0.91186035  0.15960151  0.44770325    -0.07550
C448        C  0.88447446  0.16962921  0.43140822    -0.08290
C449        C  0.86896540  0.19361172  0.45018333    -0.02840
C450        C  0.87206806  0.19687991  0.49155232     0.03970
N451        N  0.85161752  0.21583314  0.51397534     0.66480
H452        H  0.90501974  0.19569839  0.53767490     0.15380
H453        H  0.87922708  0.16394156  0.40059607     0.15090
N454        N  0.93072681  0.13928429  0.42507409     0.74180
O455        O  0.85625060  0.22171035  0.55048825    -0.39270
O456        O  0.82790518  0.22550958  0.49786689    -0.39210
O457        O  0.94342868  0.11759542  0.44206629    -0.39910
O458        O  0.93023459  0.13954430  0.38742007    -0.39980
C459        C  0.97209939  0.31642265  0.23185413    -0.12260
C460        C  0.94265616  0.30895526  0.22076724     0.04750
C461        C  0.93000205  0.32269655  0.18676717    -0.07550
C462        C  0.94775270  0.34080430  0.16316382    -0.08290
C463        C  0.97721382  0.34760903  0.17395321    -0.02840
C464        C  0.98933550  0.33612154  0.20970802     0.03970
N465        N  0.01904815  0.34322076  0.22356376     0.66480
H466        H  0.98185615  0.30703700  0.25849694     0.15380
H467        H  0.93833657  0.34993048  0.13606929     0.15090
N468        N  0.89917513  0.31933854  0.17609166     0.74180
O469        O  0.03183781  0.32729157  0.24936584    -0.39270
O470        O  0.03122588  0.36722999  0.21408732    -0.39210
O471        O  0.87925437  0.33016765  0.19895805    -0.39910
O472        O  0.89223157  0.31225773  0.14061884    -0.39980
C473        C  0.94539671  0.30555908  0.46200269    -0.12260
C474        C  0.94533543  0.30422423  0.42007342     0.04750
C475        C  0.96573096  0.32245551  0.39978228    -0.07550
C476        C  0.98622340  0.34029448  0.42186973    -0.08290
C477        C  0.98692225  0.34077633  0.46386010    -0.02840
C478        C  0.96565707  0.32353289  0.48395679     0.03970
N479        N  0.96465486  0.32364935  0.52669639     0.66480
H480        H  0.93030019  0.29140347  0.47792833     0.15380
H481        H  0.00258911  0.35309705  0.40612822     0.15090
N482        N  0.96631939  0.32268142  0.35692553     0.74180
O483        O  0.95838133  0.30013726  0.54484637    -0.39270
O484        O  0.96532061  0.34815158  0.04584910    -0.39210
O485        O  0.94232436  0.32055106  0.33726153    -0.39910
O486        O  0.99004829  0.32879559  0.33883503    -0.39980
C487        C  0.11860146  0.35100160  0.22032940    -0.12260
C488        C  0.13244079  0.32611191  0.20090127     0.04750
C489        C  0.13369864  0.32635126  0.15855827    -0.07550
C490        C  0.11787257  0.34909379  0.13770834    -0.08290
C491        C  0.10039664  0.37165980  0.15718176    -0.02840
C492        C  0.10320095  0.37395490  0.19919247     0.03970
N493        N  0.08937680  0.39841379  0.22106513     0.66480
H494        H  0.11860198  0.35180361  0.25261726     0.15380
H495        H  0.11643198  0.34722377  0.10549545     0.15090
N496        N  0.14905495  0.30305386  0.13582877     0.74180
O497        O  0.08628650  0.39694850  0.25829217    -0.39270
O498        O  0.08397306  0.42299379  0.20450737    -0.39210
O499        O  0.15515197  0.27799626  0.15069499    -0.39910
O500        O  0.15631239  0.30737194  0.10007972    -0.39980
C501        C  0.13179462  0.38471432  0.40514103    -0.12260
C502        C  0.10979088  0.37598775  0.37728300     0.04750
C503        C  0.08500518  0.39595096  0.37071303    -0.07550
C504        C  0.08028339  0.41944398  0.39814070    -0.08290
C505        C  0.09534435  0.41813594  0.43432250    -0.02840
C506        C  0.12486276  0.40701143  0.43382070     0.03970
N507        N  0.14457973  0.41264584  0.46715846     0.66480
H508        H  0.15213426  0.37153554  0.40836912     0.15380
H509        H  0.05942507  0.43204926  0.39671125     0.15090
N510        N  0.06284485  0.39184762  0.33998757     0.74180
O511        O  0.16986284  0.39981645  0.46906627    -0.39270
O512        O  0.13736112  0.43157625  0.49405279    -0.39210
O513        O  0.04455369  0.37083164  0.34253073    -0.39910
O514        O  0.05463710  0.41452177  0.32074883    -0.39980
C515        C  0.09306844  0.19400078  0.40033204    -0.12260
C516        C  0.10100392  0.22386827  0.40966425     0.04750
C517        C  0.09250475  0.23566305  0.44720319    -0.07550
C518        C  0.07423290  0.21913924  0.47227842    -0.08290
C519        C  0.06466469  0.18990031  0.46272724    -0.02840
C520        C  0.07592427  0.17644090  0.42681330     0.03970
N521        N  0.06824248  0.14635793  0.41498444     0.66480
H522        H  0.09899002  0.18486362  0.37119296     0.15380
H523        H  0.06575497  0.23044875  0.49870977     0.15090
N524        N  0.09844595  0.26617948  0.45784927     0.74180
O525        O  0.06986945  0.13797966  0.37882536    -0.39270
O526        O  0.06254272  0.12720737  0.44083522    -0.39210
O527        O  0.07719016  0.28380997  0.46706976    -0.39910
O528        O  0.12498624  0.27521039  0.45994243    -0.39980
C529        C  0.10761535  0.16448074  0.23932437    -0.12260
C530        C  0.12787894  0.18157156  0.21717504     0.04750
C531        C  0.13330186  0.17273584  0.17730960    -0.07550
C532        C  0.11441530  0.15128385  0.15918329    -0.08290
C533        C  0.08924681  0.13985508  0.17912597    -0.02840
C534        C  0.08716320  0.14492692  0.22077068     0.03970
N535        N  0.06312248  0.13338681  0.24421660     0.66480
H536        H  0.10453599  0.16993516  0.27072871     0.15380
H537        H  0.11674709  0.14667153  0.12745922     0.15090
N538        N  0.15592666  0.18670693  0.15416113     0.74180
O539        O  0.06632501  0.13075405  0.28143634    -0.39270
O540        O  0.03798070  0.12779858  0.22886853    -0.39210
O541        O  0.18092725  0.19265431  0.16971249    -0.39910
O542        O  0.15270027  0.18919770  0.11694911    -0.39980
C543        C  0.00677352  0.19511357  0.28312875    -0.12260
C544        C  0.99981671  0.19317108  0.32373290     0.04750
C545        C  0.01881774  0.20698364  0.35121995    -0.07550
C546        C  0.02990836  0.23438763  0.33987301    -0.08290
C547        C  0.03079525  0.24197981  0.29945131    -0.02840
C548        C  0.02065040  0.22111737  0.27013533     0.03970
N549        N  0.02120471  0.22734748  0.22827334     0.66480
H550        H  0.99495741  0.18114430  0.26169941     0.15380
H551        H  0.03724456  0.24991695  0.36293331     0.15090
N552        N  0.01569312  0.20102942  0.39282980     0.74180
O553        O  0.02107761  0.20609503  0.20288679    -0.39270
O554        O  0.01738033  0.25376375  0.21653033    -0.39210
O555        O  0.00844545  0.17524084  0.40352773    -0.39910
O556        O  0.01404486  0.22259890  0.41767808    -0.39980
C557        C  0.50084564  0.24720415  0.15767252    -0.12260
C558        C  0.50812355  0.23868511  0.19672854     0.04750
C559        C  0.53800290  0.23937123  0.20967005    -0.07550
C560        C  0.56030038  0.24190361  0.18129984    -0.08290
C561        C  0.55279104  0.25578357  0.14551260    -0.02840
C562        C  0.52334084  0.25381826  0.13087175     0.03970
N563        N  0.51604533  0.26112203  0.09031759     0.66480
H564        H  0.47806588  0.24506449  0.14693058     0.15380
H565        H  0.58323767  0.24296295  0.19167710     0.15090
N566        N  0.54535781  0.24048948  0.25143033     0.74180
O567        O  0.53574506  0.25881193  0.06356391    -0.39270
O568        O  0.48954783  0.26787990  0.08049738    -0.39210
O569        O  0.57194604  0.23643793  0.26315611    -0.39910
O570        O  0.52623344  0.25062071  0.27592149    -0.39980
C571        C  0.28839135  0.27076449  0.36351676    -0.12260
C572        C  0.29133186  0.28363920  0.40224676     0.04750
C573        C  0.26564403  0.29725528  0.41971860    -0.07550
C574        C  0.23823325  0.29720802  0.39826060    -0.08290
C575        C  0.23580674  0.28454883  0.35930233    -0.02840
C576        C  0.26147597  0.27092392  0.34224643     0.03970
N577        N  0.26054053  0.25559338  0.30419725     0.66480
H578        H  0.30723341  0.25937733  0.34942072     0.15380
H579        H  0.21876918  0.30782326  0.41184561     0.15090
N580        N  0.26693081  0.31202106  0.45814091     0.74180
O581        O  0.28059139  0.26009152  0.27876200    -0.39270
O582        O  0.24330336  0.23377799  0.29893692    -0.39210
O583        O  0.28729592  0.33049950  0.46583759    -0.39910
O584        O  0.24517977  0.31043161  0.48178759    -0.39980
C585        C  0.42683868  0.32327255  0.07820390    -0.12260
C586        C  0.42148056  0.32732859  0.03742969     0.04750
C587        C  0.43854468  0.34893178  0.01760796    -0.07550
C588        C  0.46284844  0.36271121  0.03759401    -0.08290
C589        C  0.46990652  0.35643108  0.07743680    -0.02840
C590        C  0.44994718  0.33842093  0.09864724     0.03970
N591        N  0.45226396  0.33590702  0.14102624     0.66480
H592        H  0.41363177  0.30725355  0.09393447     0.15380
H593        H  0.47675496  0.37798034  0.02168648     0.15090
N594        N  0.43180758  0.35660884  0.97707305     0.74180
O595        O  0.44621823  0.31157774  0.15731577    -0.39270
O596        O  0.45529268  0.35921227  0.16249786    -0.39210
O597        O  0.40484311  0.35762314  0.46486602    -0.39910
O598        O  0.45185498  0.36665006  0.95488379    -0.39980
C599        C  0.43265971  0.32305796  0.25515241    -0.12260
C600        C  0.45485727  0.34439930  0.26293883     0.04750
C601        C  0.44764534  0.36885354  0.28901192    -0.07550
C602        C  0.42105038  0.36835317  0.31111254    -0.08290
C603        C  0.40388316  0.34232434  0.31108032    -0.02840
C604        C  0.40593479  0.32334437  0.27709677     0.03970
N605        N  0.38269768  0.30246751  0.26731918     0.66480
H606        H  0.43635808  0.30579499  0.23254319     0.15380
H607        H  0.41807775  0.38469871  0.33518470     0.15090
N608        N  0.46807475  0.39262236  0.29682549     0.74180
O609        O  0.38445942  0.28639001  0.23595300    -0.39270
O610        O  0.35840132  0.30327182  0.28631223    -0.39210
O611        O  0.45862941  0.41935595  0.29690972    -0.39910
O612        O  0.49349816  0.38686671  0.31147770    -0.39980
C613        C  0.44924902  0.19540178  0.05161655    -0.12260
C614        C  0.41791271  0.19876073  0.05041188     0.04750
C615        C  0.40050958  0.17812913  0.07132716    -0.07550
C616        C  0.41523107  0.15564440  0.09367708    -0.08290
C617        C  0.44661017  0.15185193  0.09337797    -0.02840
C618        C  0.46363130  0.17192959  0.07131751     0.03970
N619        N  0.49568089  0.16964339  0.06988652     0.66480
H620        H  0.46291173  0.21109111  0.03600139     0.15380
H621        H  0.40216196  0.14103304  0.11184268     0.15090
N622        N  0.36836893  0.17913657  0.06990017     0.74180
O623        O  0.50827190  0.14450234  0.06418823    -0.39270
O624        O  0.51120072  0.19291057  0.06844590    -0.39210
O625        O  0.35481450  0.18612168  0.03824984    -0.39910
O626        O  0.35344209  0.16946620  0.09861749    -0.39980
C627        C  0.44313159  0.17975933  0.28741839    -0.12260
C628        C  0.46097708  0.16512387  0.31585832     0.04750
C629        C  0.45572091  0.17121978  0.35674511    -0.07550
C630        C  0.43716206  0.19579800  0.36755796    -0.08290
C631        C  0.42386564  0.21399497  0.33852870    -0.02840
C632        C  0.42493196  0.20456711  0.29821809     0.03970
N633        N  0.40822869  0.22022748  0.26825583     0.66480
H634        H  0.44578002  0.17378290  0.25611270     0.15380
H635        H  0.43505204  0.20226411  0.39878337     0.15090
N636        N  0.46874274  0.15291230  0.38736453     0.74180
O637        O  0.41642733  0.21909789  0.23225679    -0.39270
O638        O  0.38327078  0.23215270  0.27684764    -0.39210
O639        O  0.45769055  0.15365543  0.42195704    -0.39910
O640        O  0.48829561  0.13312611  0.37905802    -0.39980
C641        C  0.78518290  0.23320299  0.36324416    -0.12260
C642        C  0.79449336  0.26271156  0.35897398     0.04750
C643        C  0.78182382  0.28544866  0.38422421    -0.07550
C644        C  0.76034363  0.27796828  0.41283702    -0.08290
C645        C  0.75107786  0.24845133  0.41712296    -0.02840
C646        C  0.76378393  0.22572791  0.39193374     0.03970
N647        N  0.75460656  0.19506851  0.39451098     0.66480
H648        H  0.79583495  0.21557263  0.34547603     0.15380
H649        H  0.74926885  0.29561440  0.43011645     0.15090
N650        N  0.79006446  0.31628870  0.38059752     0.74180
O651        O  0.75786936  0.17722751  0.36507557    -0.39270
O652        O  0.74498456  0.18513083  0.42690821    -0.39210
O653        O  0.79814044  0.32616044  0.34740091    -0.39910
O654        O  0.78683793  0.33441517  0.40973124    -0.39980
C655        C  0.60608374  0.14249852  0.06388772    -0.12260
C656        C  0.61560421  0.17227526  0.06963557     0.04750
C657        C  0.60246393  0.18897880  0.10145231    -0.07550
C658        C  0.57926265  0.17650845  0.12439293    -0.08290
C659        C  0.56869459  0.14727497  0.11711082    -0.02840
C660        C  0.58352404  0.12983805  0.08723919     0.03970
N661        N  0.57499394  0.09966793  0.07848474     0.66480
H662        H  0.61580251  0.12891431  0.03997610     0.15380
H663        H  0.56887932  0.18990916  0.14770392     0.15090
N664        N  0.61134265  0.21903985  0.10970309     0.74180
O665        O  0.56782597  0.09213104  0.04325370    -0.39270
O666        O  0.58081370  0.07956295  0.10331795    -0.39210
O667        O  0.60573120  0.23929012  0.08501220    -0.39910
O668        O  0.62461172  0.22546661  0.14198508    -0.39980
C669        C  0.61377904  0.12963237  0.33378222    -0.12260
C670        C  0.60678558  0.13957969  0.29545497     0.04750
C671        C  0.62983355  0.15148167  0.27195977    -0.07550
C672        C  0.65648784  0.16010009  0.29108149    -0.08290
C673        C  0.65785603  0.16013197  0.33282615    -0.02840
C674        C  0.64092049  0.13824215  0.35195269     0.03970
N675        N  0.64729760  0.13070702  0.39271058     0.66480
H676        H  0.59695749  0.11851934  0.35092263     0.15380
H677        H  0.67235518  0.17335238  0.27513207     0.15090
N678        N  0.62524679  0.15751492  0.23026430     0.74180
O679        O  0.62933080  0.11527908  0.41224544    -0.39270
O680        O  0.67193402  0.13772964  0.40853331    -0.39210
O681        O  0.60638834  0.14288960  0.21000038    -0.39910
O682        O  0.64159655  0.17579323  0.21272161    -0.39980
C683        C  0.58556489  0.29652565  0.00241553    -0.12260
C684        C  0.61683559  0.29286892  0.00497801     0.04750
C685        C  0.63380077  0.31893897  0.01365598    -0.07550
C686        C  0.61933148  0.34580071  0.02564759    -0.08290
C687        C  0.58813676  0.34823141  0.02829619    -0.02840
C688        C  0.57118753  0.32415636  0.01249887     0.03970
N689        N  0.53930072  0.32726996  0.00827425     0.66480
H690        H  0.57220315  0.27764365  0.99303873     0.15380
H691        H  0.63274684  0.36409056  0.03704185     0.15090
N692        N  0.66580290  0.31848739  0.01234345     0.74180
O693        O  0.52770717  0.35280945  0.00324375    -0.39270
O694        O  0.52314663  0.30453969  0.00390602    -0.39210
O695        O  0.67883619  0.31469715  0.97925922    -0.39910
O696        O  0.68060568  0.32765221  0.04221994    -0.39980
C697        C  0.60770534  0.32168108  0.34161193    -0.12260
C698        C  0.62576152  0.29849569  0.32535176     0.04750
C699        C  0.63119365  0.29771230  0.28384163    -0.07550
C700        C  0.61567766  0.31810882  0.25943539    -0.08290
C701        C  0.59407957  0.33821795  0.27520488    -0.02840
C702        C  0.59161686  0.34151930  0.31705369     0.03970
N703        N  0.57058773  0.36267040  0.33456753     0.66480
H704        H  0.60357571  0.32216224  0.37345850     0.15380
H705        H  0.61742660  0.31554269  0.22730196     0.15090
N706        N  0.64949990  0.27439993  0.26566995     0.74180
O707        O  0.56199718  0.35997512  0.37012073    -0.39270
O708        O  0.56191926  0.38523902  0.31543527    -0.39210
O709        O  0.67040948  0.26214204  0.28508785    -0.39910
O710        O  0.64595656  0.26707161  0.22937064    -0.39980
C711        C  0.53966590  0.20373827  0.38606546    -0.12260
C712        C  0.54466640  0.18152506  0.41406307     0.04750
C713        C  0.52378817  0.17779035  0.44469796    -0.07550
C714        C  0.50281613  0.20078904  0.45200119    -0.08290
C715        C  0.50434570  0.22713184  0.43027103    -0.02840
C716        C  0.52479480  0.22944639  0.39897080     0.03970
N717        N  0.53133116  0.25796942  0.38199594     0.66480
H718        H  0.55390119  0.20491628  0.36016754     0.15380
H719        H  0.48548010  0.19815650  0.47393632     0.15090
N720        N  0.52369492  0.15094436  0.46752623     0.74180
O721        O  0.52855695  0.28170194  0.40286685    -0.39270
O722        O  0.54425480  0.25923983  0.34882859    -0.39210
O723        O  0.50002134  0.14311629  0.48437691    -0.39910
O724        O  0.54559903  0.13282426  0.46614895    -0.39980
C725        C  0.51462552  0.99564747  0.30681963    -0.12260
C726        C  0.53890356  0.97687240  0.29731640     0.04750
C727        C  0.55858580  0.98463071  0.26640104    -0.07550
C728        C  0.55253944  0.01051906  0.24447088    -0.08290
C729        C  0.52733252  0.02845033  0.25280306    -0.02840
C730        C  0.50815117  0.02099842  0.28447158     0.03970
N731        N  0.48111669  0.03789904  0.29278429     0.66480
H732        H  0.49876581  0.98875413  0.32903888     0.15380
H733        H  0.56776621  0.01704539  0.22131591     0.15090
N734        N  0.58420372  0.96604345  0.25652909     0.74180
O735        O  0.47055451  0.03896007  0.32765698    -0.39270
O736        O  0.46584435  0.04877499  0.26467099    -0.39210
O737        O  0.59585484  0.94926286  0.28231984    -0.39910
O738        O  0.59670830  0.96797873  0.22301841    -0.39980
C739        C  0.51930621  0.46262950  0.26241426    -0.12260
C740        C  0.52477978  0.46512190  0.22091842     0.04750
C741        C  0.52986404  0.49370019  0.20599299    -0.07550
C742        C  0.52913102  0.51850110  0.23203702    -0.08290
C743        C  0.52141848  0.51643433  0.27289041    -0.02840
C744        C  0.51780841  0.48775133  0.28848734     0.03970
N745        N  0.51305330  0.48352588  0.33029858     0.66480
H746        H  0.51641946  0.44081719  0.27508159     0.15380
H747        H  0.53295263  0.54008785  0.21909064     0.15090
N748        N  0.53498061  0.49838261  0.16443838     0.74180
O749        O  0.49521518  0.46388022  0.34157778    -0.39270
O750        O  0.53065120  0.49514946  0.35553525    -0.39210
O751        O  0.51396019  0.49429833  0.13976391    -0.39910
O752        O  0.55740829  0.51298103  0.15392956    -0.39980
C753        C  0.49909530  0.71538722  0.30440146    -0.12260
C754        C  0.46897399  0.71959629  0.31460622     0.04750
C755        C  0.45978168  0.74517826  0.33655509    -0.07550
C756        C  0.48089535  0.76730758  0.34346549    -0.08290
C757        C  0.51019733  0.76327325  0.32935114    -0.02840
C758        C  0.52012574  0.73632977  0.31274330     0.03970
N759        N  0.55097939  0.73023536  0.30247654     0.66480
H760        H  0.50748410  0.69600115  0.28990792     0.15380
H761        H  0.47380176  0.78884504  0.35577742     0.15090
N762        N  0.42943083  0.74956626  0.34995995     0.74180
O763        O  0.56157879  0.70406337  0.30557208    -0.39270
O764        O  0.56769599  0.75042845  0.28995363    -0.39210
O765        O  0.42354836  0.76813779  0.37780483    -0.39910
O766        O  0.40810396  0.73647966  0.33249250    -0.39980
C767        C  0.44127754  0.80033751  0.45425850    -0.12260
C768        C  0.41249132  0.81287139  0.45739624     0.04750
C769        C  0.40695270  0.84181716  0.44232196    -0.07550
C770        C  0.43073702  0.85723020  0.42451497    -0.08290
C771        C  0.45981484  0.84478381  0.42293754    -0.02840
C772        C  0.46488663  0.81627204  0.43877687     0.03970
N773        N  0.49442118  0.80383575  0.44135965     0.66480
H774        H  0.44618758  0.77895903  0.46769303     0.15380
H775        H  0.42653914  0.87882722  0.41144226     0.15090
N776        N  0.37780420  0.85586101  0.44528925     0.74180
O777        O  0.49929787  0.77701999  0.43074896    -0.39270
O778        O  0.51572567  0.81973503  0.45381224    -0.39210
O779        O  0.35505571  0.84054997  0.95150691    -0.39910
O780        O  0.37451345  0.88350930  0.43943498    -0.39980
C781        C  0.44108097  0.85569398  0.18279922    -0.12260
C782        C  0.44930522  0.85385380  0.22319794     0.04750
C783        C  0.43163116  0.83578591  0.24784858    -0.07550
C784        C  0.41079069  0.81599570  0.23045757    -0.08290
C785        C  0.40551566  0.81483730  0.18921196    -0.02840
C786        C  0.41853965  0.83733235  0.16583506     0.03970
N787        N  0.41114240  0.84000027  0.12424612     0.66480
H788        H  0.45409449  0.86961407  0.16362569     0.15380
H789        H  0.40038900  0.79950981  0.24884233     0.15090
N790        N  0.43662530  0.83529837  0.29021413     0.74180
O791        O  0.42970864  0.85059676  0.10031753    -0.39270
O792        O  0.38458334  0.83632263  0.11263006    -0.39210
O793        O  0.44229733  0.85926964  0.30899744    -0.39910
O794        O  0.43016100  0.81251025  0.30975524    -0.39980
C795        C  0.39159834  0.67682749  0.46088336    -0.12260
C796        C  0.41049395  0.69310429  0.48679412     0.04750
C797        C  0.44001937  0.68140569  0.49209078    -0.07550
C798        C  0.45000515  0.65549864  0.47017954    -0.08290
C799        C  0.43182765  0.64109889  0.44149739    -0.02840
C800        C  0.40161836  0.65139304  0.43848069     0.03970
N801        N  0.38083810  0.63658166  0.41204362     0.66480
H802        H  0.36867288  0.68441356  0.45721729     0.15380
H803        H  0.47302797  0.64809067  0.47333997     0.15090
N804        N  0.46057425  0.69563330  0.01933675     0.74180
O805        O  0.38224524  0.60856251  0.40674381    -0.39270
O806        O  0.35951485  0.65107113  0.39643956    -0.39210
O807        O  0.46912201  0.72171077  0.01239781    -0.39910
O808        O  0.47517325  0.68004026  0.04383459    -0.39980
C809        C  0.42540528  0.61927675  0.16216091    -0.12260
C810        C  0.42501148  0.61750042  0.20378320     0.04750
C811        C  0.40220063  0.63372544  0.22432607    -0.07550
C812        C  0.39065026  0.65990735  0.20688182    -0.08290
C813        C  0.39892370  0.66696975  0.16805817    -0.02840
C814        C  0.41316245  0.64467865  0.14377775     0.03970
N815        N  0.41780868  0.64902936  0.10175432     0.66480
H816        H  0.44051286  0.60460887  0.14549978     0.15380
H817        H  0.37818196  0.67619042  0.22477717     0.15090
N818        N  0.39584066  0.62752549  0.26538638     0.74180
O819        O  0.43653922  0.63299222  0.08262469    -0.39270
O820        O  0.40105787  0.66670360  0.08269626    -0.39210
O821        O  0.40401257  0.60293659  0.28002317    -0.39910
O822        O  0.38004899  0.64542507  0.28630576    -0.39980
C823        C  0.57500076  0.69222560  0.41715041    -0.12260
C824        C  0.60208943  0.67649771  0.42239526     0.04750
C825        C  0.60363655  0.64628256  0.40889587    -0.07550
C826        C  0.57764660  0.63246393  0.39299880    -0.08290
C827        C  0.54965400  0.64752589  0.39143912    -0.02840
C828        C  0.54881079  0.67810375  0.40355675     0.03970
N829        N  0.52120394  0.69461449  0.40632557     0.66480
H830        H  0.57312664  0.71495505  0.42873453     0.15380
H831        H  0.57911132  0.60933404  0.38292621     0.15090
N832        N  0.63105866  0.62915462  0.41229898     0.74180
O833        O  0.50104423  0.68577176  0.42918820    -0.39270
O834        O  0.52022518  0.72135081  0.39535309    -0.39210
O835        O  0.65574010  0.64212267  0.41674112    -0.39910
O836        O  0.63105290  0.60103690  0.40806013    -0.39980
C837        C  0.59258599  0.65643134  0.14307462    -0.12260
C838        C  0.60996176  0.67789067  0.16353565     0.04750
C839        C  0.60955494  0.67836237  0.20568305    -0.07550
C840        C  0.58826719  0.66119441  0.22555555    -0.08290
C841        C  0.56690972  0.64424518  0.20447989    -0.02840
C842        C  0.57024167  0.64030192  0.16274536     0.03970
N843        N  0.54957225  0.62248783  0.13964406     0.66480
H844        H  0.59364582  0.65524295  0.11081830     0.15380
H845        H  0.58619203  0.66352780  0.25763582     0.15090
N846        N  0.62866175  0.69823702  0.22824063     0.74180
O847        O  0.54655095  0.62632485  0.10261660    -0.39270
O848        O  0.53547399  0.60167374  0.15555446    -0.39210
O849        O  0.65145791  0.70910676  0.21233309    -0.39910
O850        O  0.62406427  0.70346009  0.26489265    -0.39980
C851        C  0.60293470  0.82125565  0.47672427    -0.12260
C852        C  0.60832465  0.79302913  0.45789404     0.04750
C853        C  0.60249480  0.79056104  0.41676861    -0.07550
C854        C  0.58979432  0.81478610  0.39633910    -0.08290
C855        C  0.58108381  0.84221445  0.41532948    -0.02840
C856        C  0.58897738  0.84569222  0.45633720     0.03970
N857        N  0.58422356  0.87373598  0.47730081     0.66480
H858        H  0.60986444  0.82433943  0.50742375     0.15380
H859        H  0.58671863  0.81164250  0.36455692     0.15090
N860        N  0.61018872  0.76372131  0.39471887     0.74180
O861        O  0.58053524  0.87435401  0.51461732    -0.39270
O862        O  0.58799987  0.89805687  0.45976122    -0.39210
O863        O  0.59252120  0.75352341  0.36853861    -0.39910
O864        O  0.63626150  0.75275507  0.39712484    -0.39980
C865        C  0.57626813  0.87114785  0.13664773    -0.12260
C866        C  0.58661739  0.87657081  0.17536972     0.04750
C867        C  0.61392452  0.86244006  0.18631628    -0.07550
C868        C  0.62208299  0.83521974  0.16681557    -0.08290
C869        C  0.60430336  0.82389010  0.13563043    -0.02840
C870        C  0.58241323  0.84324371  0.11813804     0.03970
N871        N  0.56426786  0.83402880  0.08450704     0.66480
H872        H  0.55755414  0.88450834  0.12611339     0.15380
H873        H  0.63996021  0.82141978  0.17873495     0.15090
N874        N  0.62939771  0.87187640  0.22211057     0.74180
O875        O  0.53907897  0.84627092  0.07845827    -0.39270
O876        O  0.57383588  0.81487308  0.05940934    -0.39210
O877        O  0.65106305  0.85666140  0.23555471    -0.39910
O878        O  0.62229328  0.89622385  0.23958493    -0.39980
C879        C  0.51099417  0.78031835  0.05557065    -0.12260
C880        C  0.49694955  0.77910490  0.09249484     0.04750
C881        C  0.50434095  0.75576010  0.11825692    -0.07550
C882        C  0.51517932  0.72917029  0.10133642    -0.08290
C883        C  0.52625089  0.72842699  0.06210781    -0.02840
C884        C  0.52459426  0.75470568  0.03941966     0.03970
N885        N  0.53541451  0.75522264  0.49918841     0.66480
H886        H  0.50631839  0.79900679  0.03630247     0.15380
H887        H  0.51852993  0.71002279  0.12023269     0.15090
N888        N  0.49840772  0.75811172  0.16043504     0.74180
O889        O  0.52771649  0.73528762  0.47427571    -0.39270
O890        O  0.54919828  0.77768783  0.48743862    -0.39210
O891        O  0.49831706  0.73510378  0.18160239    -0.39910
O892        O  0.49642657  0.78351690  0.17741169    -0.39980
C893        C  0.96566173  0.00459432  0.48490798    -0.12260
C894        C  0.99061544  0.99294018  0.46398506     0.04750
C895        C  0.01654456  0.01057999  0.46214183    -0.07550
C896        C  0.01711687  0.03869064  0.98217669    -0.08290
C897        C  0.99281313  0.04967261  0.00483212    -0.02840
C898        C  0.96618647  0.03287120  0.00502883     0.03970
N899        N  0.93960152  0.04393227  0.02500348     0.66480
H900        H  0.94605161  0.99084420  0.48703273     0.15380
H901        H  0.03727672  0.05175402  0.98139286     0.15090
N902        N  0.04309971  0.99961941  0.44212439     0.74180
O903        O  0.91908025  0.02620669  0.03374508    -0.39270
O904        O  0.93494851  0.07166443  0.03007787    -0.39210
O905        O  0.04133444  0.98117812  0.41318596    -0.39910
O906        O  0.06838399  0.00972612  0.45170470    -0.39980
C907        C  0.04283317  0.52079400  0.47431036    -0.12260
C908        C  0.01442835  0.53320625  0.46660889     0.04750
C909        C  0.99019302  0.52455828  0.49077899    -0.07550
C910        C  0.99499112  0.50346740  0.02081971    -0.08290
C911        C  0.02325563  0.49067280  0.02820954    -0.02840
C912        C  0.04765086  0.49975944  0.00460775     0.03970
N913        N  0.07728734  0.48758807  0.01077294     0.66480
H914        H  0.06169904  0.52854370  0.45750015     0.15380
H915        H  0.97597106  0.49542926  0.03709292     0.15090
N916        N  0.96043924  0.53640893  0.48447381     0.74180
O917        O  0.09666888  0.48888430  0.98364947    -0.39270
O918        O  0.08504155  0.47776646  0.04436061    -0.39210
O919        O  0.95184461  0.54379448  0.45007744    -0.39910
O920        O  0.94176963  0.53713484  0.51261237    -0.39980
C921        C  0.02797442  0.76692278  0.43369005    -0.12260
C922        C  0.01421019  0.74461502  0.41117099     0.04750
C923        C  0.98300545  0.74192950  0.41191619    -0.07550
C924        C  0.96678819  0.75730165  0.44114096    -0.08290
C925        C  0.98156671  0.77607931  0.46819688    -0.02840
C926        C  0.01255979  0.78027614  0.46486733     0.03970
N927        N  0.02807312  0.80068998  0.49039854     0.66480
H928        H  0.05204576  0.76937183  0.43250332     0.15380
H929        H  0.94260310  0.75619510  0.44110542     0.15090
N930        N  0.96802042  0.72180681  0.38540568     0.74180
O931        O  0.03763188  0.79194423  0.52370058    -0.39270
O932        O  0.03844434  0.82404370  0.47578055    -0.39210
O933        O  0.95574365  0.69911584  0.39909177    -0.39910
O934        O  0.96155176  0.72996900  0.35063413    -0.39980
C935        C  0.76579672  0.74125827  0.14374633    -0.12260
C936        C  0.78268939  0.76596961  0.13354028     0.04750
C937        C  0.77288789  0.78406219  0.10168946    -0.07550
C938        C  0.74716598  0.77620939  0.07972098    -0.08290
C939        C  0.73052828  0.75118465  0.08949474    -0.02840
C940        C  0.73986540  0.73355897  0.12220076     0.03970
N941        N  0.72398896  0.70716959  0.13297192     0.66480
H942        H  0.77390513  0.72675948  0.16705754     0.15380
H943        H  0.73932771  0.79043956  0.05597389     0.15090
N944        N  0.78843889  0.81083033  0.09205671     0.74180
O945        O  0.71222158  0.69063263  0.10643396    -0.39270
O946        O  0.72429711  0.69863671  0.16863659    -0.39210
O947        O  0.78773604  0.82049093  0.05694164    -0.39910
O948        O  0.79994525  0.82675535  0.11946129    -0.39980
C949        C  0.93454250  0.66007292  0.28986411    -0.12260
C950        C  0.96574119  0.66188107  0.29012434     0.04750
C951        C  0.97865599  0.68787728  0.27475656    -0.07550
C952        C  0.96045826  0.71221878  0.26328074    -0.08290
C953        C  0.92923732  0.71088049  0.26308579    -0.02840
C954        C  0.91620856  0.68392637  0.27658691     0.03970
N955        N  0.88448761  0.68099288  0.28021818     0.66480
H956        H  0.92421223  0.64120177  0.30374416     0.15380
H957        H  0.97079904  0.73262203  0.25514257     0.15090
N958        N  0.01057503  0.69024951  0.27315793     0.74180
O959        O  0.87217770  0.65720605  0.26827014    -0.39270
O960        O  0.86992708  0.69923615  0.30217577    -0.39210
O961        O  0.02635142  0.66759554  0.26386659    -0.39910
O962        O  0.02305007  0.71507845  0.27870979    -0.39980
C963        C  0.92649354  0.71401676  0.02761233    -0.12260
C964        C  0.93397645  0.72285309  0.06698499     0.04750
C965        C  0.95819314  0.70725796  0.08481626    -0.07550
C966        C  0.97652110  0.68757717  0.06194613    -0.08290
C967        C  0.97178396  0.68150386  0.02127026    -0.02840
C968        C  0.94387686  0.69220254  0.00541701     0.03970
N969        N  0.93164443  0.68017573  0.96880219     0.66480
H970        H  0.90700512  0.72429717  0.01403558     0.15380
H971        H  0.99462985  0.67643890  0.07691292     0.15090
N972        N  0.96394736  0.70993581  0.12675649     0.74180
O973        O  0.91041352  0.69378429  0.95163968    -0.39270
O974        O  0.93712752  0.65335523  0.45855750    -0.39210
O975        O  0.94245334  0.70882215  0.15087189    -0.39910
O976        O  0.99027932  0.70652798  0.13975931    -0.39980
C977        C  0.90600702  0.85536579  0.28006428    -0.12260
C978        C  0.89367157  0.82691969  0.28768633     0.04750
C979        C  0.89927108  0.81586321  0.32657537    -0.07550
C980        C  0.91725151  0.83223403  0.35469409    -0.08290
C981        C  0.93024667  0.86032608  0.34679252    -0.02840
C982        C  0.92330366  0.87220931  0.30866938     0.03970
N983        N  0.93288409  0.90156695  0.29845840     0.66480
H984        H  0.90216676  0.86478361  0.25095957     0.15380
H985        H  0.92163635  0.82221257  0.38329211     0.15090
N986        N  0.88818239  0.78735842  0.33786505     0.74180
O987        O  0.93866861  0.90738174  0.26264864    -0.39270
O988        O  0.93084604  0.92284939  0.32371234    -0.39210
O989        O  0.90466809  0.76973428  0.35739832    -0.39910
O990        O  0.86065303  0.78207555  0.33478987    -0.39980
C991        C  0.87986951  0.87275218  0.09786827    -0.12260
C992        C  0.87462902  0.85610716  0.06258539     0.04750
C993        C  0.88115985  0.86925550  0.02587963    -0.07550
C994        C  0.89862756  0.89520251  0.02629042    -0.08290
C995        C  0.91327828  0.90418854  0.06164579    -0.02840
C996        C  0.90113001  0.89555477  0.09830541     0.03970
N997        N  0.91256608  0.90727125  0.13568822     0.66480
H998        H  0.87116606  0.86503372  0.12572125     0.15380
H999        H  0.90529429  0.90468010  0.99832850     0.15090
N1000       N  0.87228435  0.85528218  0.98859921     0.74180
O1001       O  0.90652404  0.89489697  0.16811644    -0.39270
O1002       O  0.92792237  0.93071300  0.13668114    -0.39210
O1003       O  0.88266046  0.86402549  0.95597063    -0.39910
O1004       O  0.85265679  0.83530962  0.98784614    -0.39980
C1005       C  0.24955154  0.72291266  0.16145002    -0.12260
C1006       C  0.22974674  0.74681585  0.15449096     0.04750
C1007       C  0.23605808  0.76722705  0.12401537    -0.07550
C1008       C  0.26159565  0.76264694  0.10054990    -0.08290
C1009       C  0.28179919  0.73927540  0.10814836    -0.02840
C1010       C  0.27567288  0.71887313  0.13871500     0.03970
N1011       N  0.29572279  0.69420262  0.14703289     0.66480
H1012       H  0.24430083  0.70701501  0.18421130     0.15380
H1013       H  0.26721131  0.77910237  0.07864609     0.15090
N1014       N  0.21804854  0.79380117  0.11842525     0.74180
O1015       O  0.29551080  0.68212689  0.18073244    -0.39270
O1016       O  0.31204638  0.68283105  0.11989639    -0.39210
O1017       O  0.20779377  0.80829854  0.14821722    -0.39910
O1018       O  0.21591659  0.80515675  0.08435180    -0.39980
C1019       C  0.07839437  0.78440392  0.34335298    -0.12260
C1020       C  0.10734701  0.79666635  0.34373650     0.04750
C1021       C  0.11043339  0.82565258  0.36080034    -0.07550
C1022       C  0.08484005  0.84180909  0.37459309    -0.08290
C1023       C  0.05565601  0.83053634  0.37068487    -0.02840
C1024       C  0.05244923  0.80137883  0.35416990     0.03970
N1025       N  0.02337633  0.78957484  0.34464627     0.66480
H1026       H  0.07556846  0.76273713  0.32890354     0.15380
H1027       H  0.08768650  0.86384713  0.38796799     0.15090
N1028       N  0.13921362  0.83961028  0.36208802     0.74180
O1029       O  0.02086839  0.76226387  0.33536929    -0.39270
O1030       O  0.00110594  0.80672606  0.33924359    -0.39210
O1031       O  0.16289811  0.82394038  0.36020694    -0.39910
O1032       O  0.14118993  0.86759372  0.36675383    -0.39980
C1033       C  0.07671030  0.84750244  0.04409467    -0.12260
C1034       C  0.05389944  0.86323987  0.06506503     0.04750
C1035       C  0.05550274  0.86271283  0.10713131    -0.07550
C1036       C  0.07641823  0.84387940  0.12672995    -0.08290
C1037       C  0.09593799  0.82422962  0.10549759    -0.02840
C1038       C  0.09717517  0.82755670  0.06338257     0.03970
N1039       N  0.11767236  0.80956911  0.03957096     0.66480
H1040       H  0.07729614  0.84912910  0.01203569     0.15380
H1041       H  0.07477295  0.84196880  0.15880379     0.15090
N1042       N  0.03436106  0.87964317  0.13050248     0.74180
O1043       O  0.11495503  0.80816085  0.00205324    -0.39270
O1044       O  0.13982006  0.79662933  0.05553840    -0.39210
O1045       O  0.00683372  0.87438687  0.12755010    -0.39910
O1046       O  0.04285066  0.90230530  0.15023531    -0.39980
C1047       C  0.11841704  0.66030085  0.08723392    -0.12260
C1048       C  0.10015639  0.68626320  0.08887826     0.04750
C1049       C  0.07171643  0.68489802  0.07193795    -0.07550
C1050       C  0.05876392  0.65697032  0.06752049    -0.08290
C1051       C  0.07727569  0.63369444  0.05406656    -0.02840
C1052       C  0.10783030  0.63442785  0.06624481     0.03970
N1053       N  0.12750756  0.60937371  0.05763520     0.66480
H1054       H  0.14033481  0.66042525  0.10102956     0.15380
H1055       H  0.03538027  0.65531942  0.06151202     0.15090
N1056       N  0.05706886  0.71194521  0.05917528     0.74180
O1057       O  0.15492283  0.61052163  0.06646312    -0.39270
O1058       O  0.11735199  0.58545427  0.04258812    -0.39210
O1059       O  0.07200855  0.73146344  0.04172888    -0.39910
O1060       O  0.03072073  0.71824716  0.06961965    -0.39980
C1061       C  0.12481653  0.67425687  0.32274600    -0.12260
C1062       C  0.11969537  0.68175981  0.28278396     0.04750
C1063       C  0.10175918  0.66225872  0.25917316    -0.07550
C1064       C  0.08567113  0.63922027  0.27761421    -0.08290
C1065       C  0.08768664  0.63433509  0.31888486    -0.02840
C1066       C  0.10994707  0.65018623  0.34055611     0.03970
N1067       N  0.11614092  0.64316710  0.38150662     0.66480
H1068       H  0.13957997  0.68808500  0.34067015     0.15380
H1069       H  0.06955648  0.62660568  0.26021494     0.15090
N1070       N  0.09935180  0.66577333  0.21675632     0.74180
O1071       O  0.12850616  0.66198234  0.40456927    -0.39270
O1072       O  0.11189593  0.61707827  0.39373931    -0.39210
O1073       O  0.12220099  0.67209021  0.19689250    -0.39910
O1074       O  0.07586926  0.65823731  0.19835526    -0.39980
C1075       C  0.00632143  0.84397482  0.21142937    -0.12260
C1076       C  0.98953928  0.81907431  0.19950667     0.04750
C1077       C  0.99327897  0.79174899  0.21897605    -0.07550
C1078       C  0.00995833  0.79192161  0.25338684    -0.08290
C1079       C  0.03477244  0.80978943  0.25145238    -0.02840
C1080       C  0.03120122  0.83874011  0.23622642     0.03970
N1081       N  0.05432554  0.86045376  0.24134393     0.66480
H1082       H  0.00132200  0.86593484  0.20016120     0.15380
H1083       H  0.01191579  0.77065882  0.26771236     0.15090
N1084       N  0.98724189  0.76357882  0.19919463     0.74180
O1085       O  0.05035745  0.88693087  0.23000412    -0.39270
O1086       O  0.07873280  0.85341591  0.25799461    -0.39210
O1087       O  0.96639406  0.76114383  0.17405634    -0.39910
O1088       O  0.00597562  0.74231564  0.20203270    -0.39980
O1089       O  0.05845629  0.78996848  0.69390698    -0.80880
O1090       O  0.17803018  0.75372771  0.65449435    -0.65570
O1091       O  0.10127864  0.74477193  0.69355276    -1.12180
C1092       C  0.12613077  0.78784183  0.80841318     1.06000
O1093       O  0.20070217  0.74481081  0.71426197    -0.78780
O1094       O  0.15619809  0.71612628  0.75737800    -0.66360
Ni1095     Ni  0.06745482  0.75345172  0.66405704     1.34870
C1096       C  0.12946159  0.71191026  0.76840204     0.84740
O1097       O  0.12830740  0.72464671  0.62454670    -0.79320
O1098       O  0.07862766  0.71861541  0.63500833    -0.89600
C1099       C  0.20114924  0.74862189  0.67597443     0.84310
O1100       O  0.08229206  0.77602642  0.62161217    -0.67800
O1101       O  0.14773938  0.76824458  0.80672105    -0.87090
C1102       C  0.10302651  0.79452942  0.62450330     0.85140
C1103       C  0.10341045  0.71117247  0.61798726     1.06710
H1104       H  0.15203412  0.79187443  0.71392914     0.38510
O1105       O  0.14677762  0.77151695  0.71949752    -1.09740
O1106       O  0.11075524  0.73384664  0.76951326    -0.66400
Ni1107     Ni  0.10793157  0.77008492  0.73667115     1.26350
O1108       O  0.12672198  0.78827212  0.64506067    -0.66620
O1109       O  0.11567479  0.79775636  0.77697630    -0.78920
C1110       C  0.05665679  0.79071306  0.73186521     0.84530
O1111       O  0.06898619  0.77076822  0.75163308    -0.66090
Ni1112     Ni  0.17322418  0.75573368  0.75857904     1.27450
Ni1113     Ni  0.13848222  0.74964039  0.67123887     1.26060
H1114       H  0.09961039  0.72446009  0.70201555     0.39070
O1115       O  0.96280357  0.81850125  0.63966463    -0.80880
O1116       O  0.83408574  0.76176887  0.62215224    -0.65570
O1117       O  0.90194070  0.80812569  0.64153013    -1.12180
C1118       C  0.91120247  0.73576044  0.74402515     1.06000
O1119       O  0.82074478  0.77503592  0.68457471    -0.78780
O1120       O  0.86337333  0.78553635  0.75560338    -0.66360
Ni1121     Ni  0.93097157  0.81346490  0.60114686     1.34870
C1122       C  0.88057643  0.80798130  0.75251119     0.84740
O1123       O  0.85622368  0.81051563  0.58684668    -0.79320
O1124       O  0.90055196  0.80985628  0.56105441    -0.89600
C1125       C  0.81393978  0.76750732  0.64805511     0.84310
O1126       O  0.93921270  0.77124813  0.59693939    -0.67800
O1127       O  0.88357613  0.73069956  0.73781294    -0.87090
C1128       C  0.92063417  0.75111164  0.58668503     0.85140
C1129       C  0.87574208  0.82327659  0.56639855     1.06710
H1130       H  0.88978823  0.74168904  0.66272137     0.38510
O1131       O  0.88172584  0.76074988  0.67197068    -1.09740
O1132       O  0.88888339  0.81363094  0.71794181    -0.66400
Ni1133     Ni  0.91269172  0.78612794  0.68688507     1.26350
O1134       O  0.89203728  0.75538360  0.59139119    -0.66620
O1135       O  0.92375200  0.76008995  0.73229301    -0.78920
C1136       C  0.96258636  0.82091453  0.67769202     0.84530
O1137       O  0.94082138  0.81471579  0.69938784    -0.66090
Ni1138     Ni  0.85332217  0.75449563  0.71328783     1.27450
Ni1139     Ni  0.86912065  0.78383376  0.62815844     1.26060
H1140       H  0.89485429  0.82758097  0.65022146     0.39070
O1141       O  0.04058850  0.71065053  0.94574119    -0.80880
O1142       O  0.00350625  0.58393420  0.96201487    -0.65570
O1143       O  0.04537581  0.65090063  0.93039000    -1.12180
C1144       C  0.98258644  0.64686212  0.82249296     1.06000
O1145       O  0.02112780  0.56247337  0.90547490    -0.78780
O1146       O  0.05033541  0.60130009  0.84885575    -0.66360
Ni1147     Ni  0.05992907  0.67807541  0.96761321     1.34870
C1148       C  0.05942895  0.62744088  0.84023889     0.84740
O1149       O  0.04533523  0.61545391  0.50163143    -0.79320
O1150       O  0.08203903  0.64536727  0.48856021    -0.89600
C1151       C  0.01204619  0.56085176  0.94238792     0.84310
O1152       O  0.02393521  0.67759699  0.50145109    -0.67800
O1153       O  0.99211829  0.61917180  0.82100984    -0.87090
C1154       C  0.99756283  0.66679432  0.49733375     0.85140
C1155       C  0.06971678  0.62799663  0.51188812     1.06710
H1156       H  0.98163546  0.62307099  0.90737155     0.38510
O1157       O  0.00279912  0.62175664  0.90188115    -1.09740
O1158       O  0.04463339  0.65048893  0.85011056    -0.66400
Ni1159     Ni  0.01658551  0.65979253  0.89088286     1.26350
O1160       O  0.99347572  0.64361580  0.97508759    -0.66620
O1161       O  0.98784654  0.66461732  0.85148771    -0.78920
C1162       C  0.03063350  0.71711174  0.91170079     0.84530
O1163       O  0.02940326  0.69892156  0.88271627    -0.66090
Ni1164     Ni  0.00867437  0.59169226  0.86296199     1.27450
Ni1165     Ni  0.02433055  0.61814283  0.95012396     1.26060
H1166       H  0.06281788  0.64250745  0.91745577     0.39070
O1167       O  0.96650288  0.81039058  0.01737123    -0.80880
O1168       O  0.00110387  0.94479336  0.98646948    -0.65570
O1169       O  0.96289740  0.87039313  0.99296837    -1.12180
C1170       C  0.02988107  0.84939012  0.88648059     1.06000
O1171       O  0.98483871  0.94686048  0.92344854    -0.78780
O1172       O  0.97185595  0.89394898  0.86955153    -0.66360
Ni1173     Ni  0.96353676  0.84937065  0.04253963     1.34870
C1174       C  0.95248834  0.87412732  0.87789941     0.84740
O1175       O  0.95669729  0.92499174  0.53291636    -0.79320
O1176       O  0.96251401  0.88692373  0.57089039    -0.89600
C1177       C  0.99259013  0.95995564  0.95681143     0.84310
O1178       O  0.00589524  0.84840448  0.54593963    -0.67800
O1179       O  0.03065116  0.87775127  0.88119281    -0.87090
C1180       C  0.02402585  0.86984161  0.54494984     0.85140
C1181       C  0.94596768  0.90790243  0.55860013     1.06710
H1182       H  0.02517633  0.88620267  0.95852234     0.38510
O1183       O  0.00483193  0.88994155  0.95000194    -1.09740
O1184       O  0.95212255  0.86389675  0.91283218    -0.66400
Ni1185     Ni  0.98413694  0.85372641  0.94935837     1.26350
O1186       O  0.01625694  0.89550267  0.03048926    -0.66620
O1187       O  0.00911802  0.83692016  0.90656547    -0.78920
C1188       C  0.96578615  0.80225646  0.98083350     0.84530
O1189       O  0.96098986  0.81976861  0.95282016    -0.66090
Ni1190     Ni  0.00597094  0.91077542  0.90119079     1.27450
Ni1191     Ni  0.98295545  0.90759043  0.99276791     1.26060
H1192       H  0.94250322  0.87304773  0.98453523     0.39070
O1193       O  0.56557202  0.70056022  0.58431570    -0.80880
O1194       O  0.67919607  0.74518691  0.59434495    -0.65570
O1195       O  0.59912588  0.74393250  0.56489828    -1.12180
C1196       C  0.62089144  0.68773220  0.95627226     1.06000
O1197       O  0.69834887  0.74395752  0.53200762    -0.78780
O1198       O  0.64709877  0.76468158  0.99025722    -0.66360
Ni1199     Ni  0.57086094  0.73982842  0.60543909     1.34870
C1200       C  0.61957593  0.76622235  0.98041139     0.84740
O1201       O  0.62953806  0.77667494  0.62082967    -0.79320
O1202       O  0.57894131  0.77942535  0.62238248    -0.89600
C1203       C  0.70100733  0.74649831  0.57042528     0.84310
O1204       O  0.59464139  0.72624057  0.64814086    -0.67800
O1205       O  0.64116967  0.70779839  0.95321517    -0.87090
C1206       C  0.61439701  0.70657696  0.64254626     0.85140
C1207       C  0.60461130  0.79143162  0.62582357     1.06710
H1208       H  0.65290999  0.69709245  0.54891993     0.38510
O1209       O  0.64503700  0.71567277  0.53871244    -1.09740
O1210       O  0.60229400  0.74377082  0.48616490    -0.66400
Ni1211     Ni  0.60430645  0.71182081  0.52702207     1.26350
O1212       O  0.63412251  0.71019154  0.61595724    -0.66620
O1213       O  0.61148720  0.68075740  0.98994709    -0.78920
C1214       C  0.54978403  0.70602164  0.55408897     0.84530
O1215       O  0.56265674  0.70551320  0.52071308    -0.66090
Ni1216     Ni  0.66830472  0.72671220  0.49457243     1.27450
Ni1217     Ni  0.63857388  0.74480994  0.58092588     1.26060
H1218       H  0.59432552  0.76229224  0.55164909     0.39070
O1219       O  0.45059826  0.78565867  0.62286184    -0.80880
O1220       O  0.33230517  0.74582168  0.61903487    -0.65570
O1221       O  0.41359405  0.74356980  0.59655785    -1.12180
C1222       C  0.39483399  0.80037555  0.98978971     1.06000
O1223       O  0.31701916  0.74219001  0.55467091    -0.78780
O1224       O  0.36984605  0.72286005  0.51471311    -0.66360
Ni1225     Ni  0.44084441  0.74649059  0.63925084     1.34870
C1226       C  0.39793694  0.72114694  0.50804766     0.84740
O1227       O  0.37889346  0.71496471  0.65124289    -0.79320
O1228       O  0.42894577  0.70748728  0.65328252    -0.89600
C1229       C  0.31220905  0.74203898  0.59264593     0.84310
O1230       O  0.41525020  0.76310203  0.67914855    -0.67800
O1231       O  0.37513407  0.78011313  0.98352046    -0.87090
C1232       C  0.39809820  0.78457464  0.67070397     0.85140
C1233       C  0.40217446  0.69831128  0.65711361     1.06710
H1234       H  0.36076426  0.79060046  0.57623650     0.38510
O1235       O  0.36912582  0.77172413  0.56682385    -1.09740
O1236       O  0.41478258  0.74334202  0.51753936    -0.66400
Ni1237     Ni  0.41018067  0.77512459  0.55986673     1.26350
O1238       O  0.37828755  0.78061062  0.64379688    -0.66620
O1239       O  0.40443148  0.80607239  0.52391368    -0.78920
C1240       C  0.46518882  0.78593421  0.59082086     0.84530
O1241       O  0.45161079  0.78110710  0.55803795    -0.66090
Ni1242     Ni  0.34757255  0.76003816  0.52069568     1.27450
Ni1243     Ni  0.37327582  0.74449796  0.60957565     1.26060
H1244       H  0.41803695  0.72484836  0.58287385     0.39070
O1245       O  0.50838507  0.54777872  0.83250026    -0.80880
O1246       O  0.45197599  0.67823859  0.84285319    -0.65570
O1247       O  0.47372830  0.59803750  0.82418480    -1.12180
C1248       C  0.53737282  0.64134796  0.72478029     1.06000
O1249       O  0.44739278  0.68054473  0.77865564    -0.78780
O1250       O  0.46595452  0.64678670  0.71596818    -0.66360
Ni1251     Ni  0.48913370  0.57800559  0.86952824     1.34870
C1252       C  0.45449485  0.62182567  0.72242917     0.84740
O1253       O  0.43590523  0.62850304  0.87371236    -0.79320
O1254       O  0.46886225  0.60522390  0.91105016    -0.89600
C1255       C  0.45070024  0.69365657  0.81216218     0.84310
O1256       O  0.52372890  0.60296463  0.87046085    -0.67800
O1257       O  0.52197445  0.66542287  0.72857730    -0.87090
C1258       C  0.52200787  0.63113946  0.87724508     0.85140
C1259       C  0.44564821  0.62268249  0.90788912     1.06710
H1260       H  0.51168271  0.65203671  0.80644769     0.38510
O1261       O  0.49316019  0.64585986  0.79432270    -1.09740
O1262       O  0.46581968  0.60338572  0.74668365    -0.66400
Ni1263     Ni  0.50069123  0.60638063  0.78118355     1.26350
O1264       O  0.49702660  0.64531887  0.87246809    -0.66620
O1265       O  0.52927927  0.61615858  0.73895663    -0.78920
C1266       C  0.51227275  0.54518168  0.79422054     0.84530
O1267       O  0.50771344  0.56647450  0.77077396    -0.66090
Ni1268     Ni  0.48421629  0.67302718  0.75283885     1.27450
Ni1269     Ni  0.46379518  0.63803772  0.83452427     1.26060
H1270       H  0.45633422  0.58752437  0.81461165     0.39070
O1271       O  0.51704402  0.79414583  0.77760914    -0.80880
O1272       O  0.52280685  0.92988415  0.77882927    -0.65730
O1273       O  0.54239232  0.84902855  0.78255606    -1.12180
C1274       C  0.48383826  0.85909511  0.89957617     1.06000
O1275       O  0.54304279  0.93470599  0.84040062    -0.78780
O1276       O  0.54687498  0.88672046  0.90256446    -0.66360
Ni1277     Ni  0.53556379  0.82035124  0.74228819     1.34870
C1278       C  0.56217327  0.86395402  0.89019938     0.84740
O1279       O  0.55437740  0.89264469  0.72904878    -0.79320
O1280       O  0.55418805  0.84499311  0.70516302    -0.89600
C1281       C  0.53506379  0.94557885  0.80633645     0.84310
O1282       O  0.49676212  0.83331734  0.72852306    -0.67800
O1283       O  0.48591842  0.88753392  0.89821350    -0.87090
C1284       C  0.48162800  0.85709212  0.73356219     0.85140
C1285       C  0.56306948  0.87190050  0.70467418     1.06710
H1286       H  0.48867524  0.88453357  0.81978435     0.38510
O1287       O  0.50978666  0.88409353  0.82524580    -1.09740
O1288       O  0.55944403  0.85678780  0.85431811    -0.66400
Ni1289     Ni  0.52273479  0.84508243  0.83149052     1.26350
O1290       O  0.49284281  0.88130271  0.74823994    -0.66620
O1291       O  0.50156336  0.84131108  0.88057087    -0.78920
C1292       C  0.52275558  0.78891385  0.81383831     0.84530
O1293       O  0.53626630  0.80644528  0.83646730    -0.66090
Ni1294     Ni  0.51611358  0.90967726  0.87078870     1.27450
Ni1295     Ni  0.53102627  0.88899440  0.77702246     1.26060
H1296       H  0.56381022  0.84856254  0.78633335     0.39070
O1297       O  0.71625837  0.23974717  0.97169403    -0.80880
O1298       O  0.58358281  0.19192620  0.95845144    -0.65570
O1299       O  0.66504220  0.20997150  0.95686384    -1.12180
C1300       C  0.62770034  0.27052043  0.84948280     1.06000
O1301       O  0.59473916  0.17894738  0.89729698    -0.78780
O1302       O  0.62862799  0.20325299  0.83944372    -0.66360
Ni1303     Ni  0.68281526  0.22458113  0.00450567     1.34870
C1304       C  0.65191915  0.18993447  0.85088130     0.84740
O1305       O  0.62923561  0.17620801  0.50189000    -0.79320
O1306       O  0.65201863  0.20835453  0.54160671    -0.89600
C1307       C  0.57608863  0.17947810  0.92553668     0.84310
O1308       O  0.65975308  0.26042111  0.99901483    -0.67800
O1309       O  0.60354992  0.25579253  0.85198877    -0.87090
C1310       C  0.63126198  0.26257683  0.49844966     0.85140
C1311       C  0.63410353  0.18617393  0.53658205     1.06710
H1312       H  0.61052485  0.24833194  0.92710390     0.38510
O1313       O  0.61988585  0.22979269  0.91821556    -1.09740
O1314       O  0.66701806  0.19997517  0.87995456    -0.66400
Ni1315     Ni  0.66018264  0.23613882  0.91182679     1.26350
O1316       O  0.61532679  0.23847368  0.99482990    -0.66620
O1317       O  0.65253622  0.26274631  0.86660410    -0.78920
C1318       C  0.72092924  0.24347407  0.93398173     0.84530
O1319       O  0.70083696  0.24237011  0.90746566    -0.66090
Ni1320     Ni  0.59804325  0.21737570  0.87365322     1.27450
Ni1321     Ni  0.62415944  0.20258302  0.96044849     1.26060
H1322       H  0.67538760  0.19160606  0.94933675     0.39070
O1323       O  0.47022336  0.25387143  0.89557743    -0.80880
O1324       O  0.34271000  0.27711220  0.89620580    -0.65570
O1325       O  0.42283503  0.28787900  0.92253663    -1.12180
C1326       C  0.40650590  0.22210536  0.52185155     1.06000
O1327       O  0.32706087  0.28461577  0.95929155    -0.78780
O1328       O  0.37879049  0.30104304  0.00824331    -0.66360
Ni1329     Ni  0.45088103  0.28961225  0.88137748     1.34870
C1330       C  0.40686812  0.30343743  0.51454443     0.84740
O1331       O  0.38502756  0.30922182  0.86094389    -0.79320
O1332       O  0.43179213  0.32537639  0.86614406    -0.89600
C1333       C  0.32184333  0.28172915  0.92115544     0.84310
O1334       O  0.42986814  0.26604756  0.84177455    -0.67800
O1335       O  0.38419185  0.24019467  0.52946754    -0.87090
C1336       C  0.41371708  0.24418863  0.85083823     0.85140
C1337       C  0.40621672  0.32606324  0.84982137     1.06710
H1338       H  0.37566992  0.23623953  0.93973753     0.38510
O1339       O  0.38168498  0.25574768  0.94946660    -1.09740
O1340       O  0.42483935  0.28193097  0.00207545    -0.66400
Ni1341     Ni  0.42311274  0.25488776  0.95681072     1.26350
O1342       O  0.39264821  0.24766433  0.87554949    -0.66620
O1343       O  0.42156168  0.22340646  0.49011931    -0.78920
C1344       C  0.47892232  0.24564433  0.92955084     0.84530
O1345       O  0.46507854  0.25279513  0.96100058    -0.66090
Ni1346     Ni  0.35757307  0.26423726  0.99393738     1.27450
Ni1347     Ni  0.38281757  0.28301548  0.90692669     1.26060
H1348       H  0.42430710  0.30623591  0.93781916     0.39070
O1349       O  0.49250328  0.20623930  0.74627097    -0.80880
O1350       O  0.52141124  0.07993743  0.75736184    -0.65570
O1351       O  0.52604163  0.15874375  0.72457795    -1.12180
C1352       C  0.46123946  0.13567684  0.62581402     1.06000
O1353       O  0.52304640  0.05999925  0.69492726    -0.78780
O1354       O  0.53992288  0.10887249  0.64812181    -0.66360
Ni1355     Ni  0.53010316  0.19011793  0.76260750     1.34870
C1356       C  0.54140408  0.13630887  0.63869827     0.84740
O1357       O  0.55634171  0.12495289  0.78167359    -0.79320
O1358       O  0.56807501  0.17341288  0.77667285    -0.89600
C1359       C  0.52376053  0.05777857  0.73333882     0.84310
O1360       O  0.51185881  0.17050361  0.80589867    -0.67800
O1361       O  0.48078601  0.11445285  0.62040524    -0.87090
C1362       C  0.48978869  0.15362776  0.80079630     0.85140
C1363       C  0.57504283  0.14628279  0.78398448     1.06710
H1364       H  0.47596700  0.10754138  0.71515732     0.38510
O1365       O  0.49431712  0.11412298  0.70334051    -1.09740
O1366       O  0.51965375  0.15450758  0.64715647    -0.66400
Ni1367     Ni  0.49086780  0.15442514  0.69198505     1.26350
O1368       O  0.49179248  0.13053200  0.77822009    -0.66620
O1369       O  0.45730683  0.14757408  0.65970858    -0.78920
C1370       C  0.49040388  0.21425184  0.71032301     0.84530
O1371       O  0.48484137  0.19505485  0.68352042    -0.66090
Ni1372     Ni  0.50297880  0.08878628  0.65904666     1.27450
Ni1373     Ni  0.52450768  0.11950364  0.74268269     1.26060
H1374       H  0.54379084  0.15997040  0.70860877     0.39070
O1375       O  0.56724428  0.29839112  0.67864173    -0.80880
O1376       O  0.53087662  0.41341151  0.71534195    -0.65570
O1377       O  0.52532337  0.33703548  0.67163225    -1.12180
C1378       C  0.57678857  0.36419669  0.56456436     1.06000
O1379       O  0.52905316  0.43787257  0.65740866    -0.78780
O1380       O  0.50325695  0.39314633  0.60761276    -0.66360
Ni1381     Ni  0.52972390  0.30463771  0.70461771     1.34870
C1382       C  0.49944887  0.36643610  0.59468361     0.84740
O1383       O  0.49959637  0.36521677  0.73611892    -0.79320
O1384       O  0.49233006  0.31539540  0.72924789    -0.89600
C1385       C  0.52851693  0.43734839  0.69605565     0.84310
O1386       O  0.54935703  0.32093233  0.74971264    -0.67800
O1387       O  0.55760813  0.38610471  0.56590325    -0.87090
C1388       C  0.56733006  0.34215721  0.74977859     0.85140
C1389       C  0.48420477  0.34164275  0.74192975     1.06710
H1390       H  0.57429162  0.38760813  0.66188892     0.38510
O1391       O  0.55469105  0.38244532  0.65195980    -1.09740
O1392       O  0.52110407  0.34721693  0.59486387    -0.66400
Ni1393     Ni  0.55507551  0.34308942  0.63252429     1.26350
O1394       O  0.56332490  0.36445759  0.72726957    -0.66620
O1395       O  0.58446464  0.35130370  0.59577703    -0.78920
C1396       C  0.56353765  0.28593606  0.64477497     0.84530
O1397       O  0.55777352  0.30261298  0.61598073    -0.66090
Ni1398     Ni  0.54240274  0.41047594  0.61330145     1.27450
Ni1399     Ni  0.52806007  0.37462077  0.69487066     1.26060
H1400       H  0.50606349  0.33491293  0.65938009     0.39070
O1401       O  0.05055968  0.28919457  0.81470851    -0.80880
O1402       O  0.18261646  0.28734290  0.85837454    -0.65570
O1403       O  0.10775788  0.29436118  0.80970360    -1.12180
C1404       C  0.13456059  0.21186482  0.73424010     1.06000
O1405       O  0.20546163  0.28113136  0.79945979    -0.78780
O1406       O  0.16595452  0.29214665  0.73714900    -0.66360
Ni1407     Ni  0.08316052  0.29130104  0.85187465     1.34870
C1408       C  0.13952547  0.29839029  0.72507766     0.84740
O1409       O  0.13454307  0.32852737  0.86502620    -0.79320
O1410       O  0.08470443  0.33278126  0.85459231    -0.89600
C1411       C  0.20632587  0.28418207  0.83783836     0.84310
O1412       O  0.08827775  0.24956461  0.85121009    -0.67800
O1413       O  0.15903848  0.22633494  0.72920184    -0.87090
C1414       C  0.10821747  0.24527222  0.87689915     0.85140
C1415       C  0.10985747  0.34436950  0.86362482     1.06710
H1416       H  0.15141818  0.23856770  0.81803355     0.38510
O1417       O  0.14931349  0.25628880  0.80223398    -1.09740
O1418       O  0.11790568  0.28166211  0.73352384    -0.66400
Ni1419     Ni  0.10990027  0.25908216  0.78090779     1.26350
O1420       O  0.12968089  0.26433074  0.87893872    -0.66620
O1421       O  0.11319465  0.22267525  0.75443188    -0.78920
C1422       C  0.04886139  0.26745304  0.78943310     0.84530
O1423       O  0.06940027  0.26224213  0.76423310    -0.66090
Ni1424     Ni  0.18030001  0.25607526  0.76421615     1.27450
Ni1425     Ni  0.14403407  0.29115754  0.83535166     1.26060
H1426       H  0.10523848  0.31195087  0.79375168     0.39070
O1427       O  0.95766082  0.19612125  0.86466641    -0.80880
O1428       O  0.84320832  0.27858955  0.86058966    -0.65570
O1429       O  0.90689489  0.22419531  0.85167610    -1.12180
C1430       C  0.92596678  0.28776450  0.74642381     1.06000
O1431       O  0.83005836  0.25571924  0.80379348    -0.78780
O1432       O  0.87396846  0.22611646  0.74986905    -0.66360
Ni1433     Ni  0.92882223  0.21555918  0.89799099     1.34870
C1434       C  0.89940123  0.21242958  0.75036726     0.84740
O1435       O  0.85779060  0.22963524  0.90157045    -0.79320
O1436       O  0.89967810  0.23233496  0.93296116    -0.89600
C1437       C  0.82312756  0.26749444  0.83849970     0.84310
O1438       O  0.94544778  0.25456936  0.89452561    -0.67800
O1439       O  0.89815273  0.28235381  0.73882752    -0.87090
C1440       C  0.92961806  0.27842425  0.89996814     0.85140
C1441       C  0.87413507  0.22138892  0.92982733     1.06710
H1442       H  0.89308321  0.29142650  0.82123284     0.38510
O1443       O  0.88994864  0.27049796  0.81514753    -1.09740
O1444       O  0.91989023  0.22118565  0.77309994    -0.66400
Ni1445     Ni  0.92596396  0.24968311  0.81456277     1.26350
O1446       O  0.90088903  0.27909570  0.89307921    -0.66620
O1447       O  0.94041510  0.27629593  0.77580360    -0.78920
C1448       C  0.97045370  0.20541972  0.83379712     0.84530
O1449       O  0.96266968  0.22918778  0.81615186    -0.66090
Ni1450     Ni  0.86489125  0.26729040  0.77026775     1.27450
Ni1451     Ni  0.87519866  0.25177539  0.85924642     1.26060
H1452       H  0.89950473  0.20609766  0.83925585     0.39070
O1453       O  0.03607917  0.22257768  0.55781636    -0.80880
O1454       O  0.00433653  0.10134696  0.50960728    -0.65570
O1455       O  0.99597397  0.17596693  0.56255519    -1.12180
C1456       C  0.06212304  0.13636279  0.65358104     1.06000
O1457       O  0.99277748  0.07873375  0.56668977    -0.78780
O1458       O  0.98130297  0.11656070  0.63429111    -0.66360
Ni1459     Ni  0.99725466  0.21216814  0.53584980     1.34870
C1460       C  0.97713780  0.14352053  0.64708594     0.84740
O1461       O  0.97072977  0.15226682  0.99455101    -0.79320
O1462       O  0.95985490  0.20015366  0.01350819    -0.89600
C1463       C  0.99680358  0.07811347  0.52842245     0.84310
O1464       O  0.01652071  0.19892582  0.48833427    -0.67800
O1465       O  0.04558944  0.11287291  0.65133860    -0.87090
C1466       C  0.03750428  0.17971827  0.98531874     0.85140
C1467       C  0.95254458  0.17478490  0.99775003     1.06710
H1468       H  0.04672926  0.12568008  0.56488245     0.38510
O1469       O  0.02702744  0.12965970  0.57560438    -1.09740
O1470       O  0.99604820  0.16347181  0.63999403    -0.66400
Ni1471     Ni  0.02600218  0.16807348  0.59926364     1.26350
O1472       O  0.03505441  0.15455798  0.50282092    -0.66620
O1473       O  0.05688923  0.15940151  0.63379995    -0.78920
C1474       C  0.04410085  0.21915471  0.59398118     0.84530
O1475       O  0.02665696  0.20716583  0.61747531    -0.66090
Ni1476     Ni  0.01725025  0.09792868  0.60933465     1.27450
Ni1477     Ni  0.00029769  0.14006358  0.53372219     1.26060
H1478       H  0.97708016  0.17566413  0.57591021     0.39070
O1479       O  0.08594127  0.31718364  0.53757113    -0.80880
O1480       O  0.01769179  0.43959264  0.52319504    -0.65570
O1481       O  0.06337475  0.37144609  0.54344414    -1.12180
C1482       C  0.99551154  0.36235479  0.64413080     1.06000
O1483       O  0.03254153  0.45548255  0.58332397    -0.78780
O1484       O  0.06330843  0.40906024  0.63048709    -0.66360
Ni1485     Ni  0.07585754  0.34721907  0.49998160     1.34870
C1486       C  0.07219769  0.38191297  0.63570719     0.84740
O1487       O  0.06807869  0.41933354  0.49363514    -0.79320
O1488       O  0.07045090  0.37677992  0.95969029    -0.89600
C1489       C  0.02379512  0.46077923  0.54700735     0.84310
O1490       O  0.03507972  0.33559216  0.49303725    -0.67800
O1491       O  0.00543227  0.38903670  0.65115122    -0.87090
C1492       C  0.01358776  0.35374784  0.98507608     0.85140
C1493       C  0.07710880  0.40414215  0.96402308     1.06710
H1494       H  0.99541466  0.39507846  0.56428131     0.38510
O1495       O  0.01610521  0.39514382  0.57259118    -1.09740
O1496       O  0.05703431  0.36070934  0.62184644    -0.66400
Ni1497     Ni  0.03179406  0.35664202  0.57633918     1.26350
O1498       O  0.01514029  0.38231083  0.49311615    -0.66620
O1499       O  0.00103728  0.34714811  0.61213142    -0.78920
C1500       C  0.07200057  0.30750490  0.56732532     0.84530
O1501       O  0.04635096  0.31707028  0.57733285    -0.66090
Ni1502     Ni  0.02123501  0.42077515  0.61733396     1.27450
Ni1503     Ni  0.04077962  0.40563449  0.53139829     1.26060
H1504       H  0.08077444  0.37735629  0.55858733     0.39070
C1505       C  0.10043867  0.26026664  0.56796339    -0.12260
C1506       C  0.08474002  0.28271389  0.58948938     0.04750
C1507       C  0.07452738  0.27640086  0.62849574    -0.07550
C1508       C  0.07370783  0.24663362  0.63938024    -0.08290
C1509       C  0.07448617  0.22594428  0.60794501    -0.02840
C1510       C  0.09573861  0.23056887  0.57813979     0.03970
N1511       N  0.10697863  0.20614457  0.55367890     0.66480
H1512       H  0.11142436  0.26511233  0.54022377     0.15380
H1513       H  0.06202505  0.24129112  0.66641439     0.15090
N1514       N  0.05805206  0.29771017  0.65231159     0.74180
O1515       O  0.12799813  0.21015580  0.52948745    -0.39270
O1516       O  0.09766812  0.17996927  0.55842289    -0.39210
O1517       O  0.02989993  0.29724370  0.65071212    -0.39910
O1518       O  0.07024751  0.30871906  0.68307230    -0.39980
C1519       C  0.90967332  0.19177388  0.68150844    -0.12260
C1520       C  0.90877680  0.18679515  0.72261066     0.04750
C1521       C  0.92671268  0.16260167  0.73716484    -0.07550
C1522       C  0.94718226  0.14688726  0.71149603    -0.08290
C1523       C  0.94969900  0.15359127  0.67091528    -0.02840
C1524       C  0.92932042  0.17533412  0.65585962     0.03970
N1525       N  0.92865527  0.18145204  0.61429939     0.66480
H1526       H  0.89645585  0.21002448  0.66953302     0.15380
H1527       H  0.96224942  0.13022765  0.72371540     0.15090
N1528       N  0.92505236  0.15446096  0.77838895     0.74180
O1529       O  0.92693877  0.20812782  0.60284932    -0.39270
O1530       O  0.92597549  0.16014539  0.58927322    -0.39210
O1531       O  0.90079578  0.15775068  0.79713328    -0.39910
O1532       O  0.94648218  0.14060196  0.79470568    -0.39980
C1533       C  0.89946131  0.18768226  0.00815781    -0.12260
C1534       C  0.92100495  0.17215260  0.98480460     0.04750
C1535       C  0.91192967  0.15956594  0.94768482    -0.07550
C1536       C  0.88450738  0.16955525  0.93145067    -0.08290
C1537       C  0.86897820  0.19350661  0.95026900    -0.02840
C1538       C  0.87212685  0.19676654  0.99163194     0.03970
N1539       N  0.85167068  0.21567652  0.01410971     0.66480
H1540       H  0.90514922  0.19566661  0.03765986     0.15380
H1541       H  0.87922871  0.16386390  0.90064934     0.15090
N1542       N  0.93079380  0.13927208  0.92501384     0.74180
O1543       O  0.85633449  0.22154337  0.05061842    -0.39270
O1544       O  0.82792453  0.22532141  0.99805578    -0.39210
O1545       O  0.94356531  0.11761327  0.94198466    -0.39910
O1546       O  0.93022721  0.13950809  0.88736024    -0.39980
C1547       C  0.97197324  0.31647298  0.73201307    -0.12260
C1548       C  0.94255058  0.30893804  0.72088812     0.04750
C1549       C  0.92990048  0.32263391  0.68684963    -0.07550
C1550       C  0.94763228  0.34077049  0.66326068    -0.08290
C1551       C  0.97706154  0.34765568  0.67410799    -0.02840
C1552       C  0.98916690  0.33621992  0.70988589     0.03970
N1553       N  0.01883870  0.34342539  0.72376369     0.66480
H1554       H  0.98173995  0.30712831  0.75867666     0.15380
H1555       H  0.93822808  0.34985132  0.63613133     0.15090
N1556       N  0.89909736  0.31918879  0.67610811     0.74180
O1557       O  0.03190271  0.32717793  0.74896978    -0.39270
O1558       O  0.03060085  0.36784545  0.71515261    -0.39210
O1559       O  0.87912355  0.33003365  0.69887874    -0.39910
O1560       O  0.89222071  0.31201581  0.64064305    -0.39980
C1561       C  0.94538153  0.30551568  0.96204179    -0.12260
C1562       C  0.94525022  0.30418910  0.92011171     0.04750
C1563       C  0.96561902  0.32241578  0.89976997    -0.07550
C1564       C  0.98615141  0.34024528  0.92180063    -0.08290
C1565       C  0.98692123  0.34071937  0.96378780    -0.02840
C1566       C  0.96568211  0.32348126  0.98394093     0.03970
N1567       N  0.96473777  0.32360577  0.02668183     0.66480
H1568       H  0.93030913  0.29136075  0.97800849     0.15380
H1569       H  0.00248911  0.35304893  0.90601515     0.15090
N1570       N  0.96614254  0.32264004  0.85691367     0.74180
O1571       O  0.95851183  0.30009096  0.04485563    -0.39270
O1572       O  0.96526259  0.34818663  0.54588183    -0.39210
O1573       O  0.94210877  0.32059115  0.83731908    -0.39910
O1574       O  0.98986719  0.32866348  0.83875585    -0.39980
C1575       C  0.11869243  0.35084806  0.72042248    -0.12260
C1576       C  0.13241836  0.32593748  0.70089569     0.04750
C1577       C  0.13356027  0.32620900  0.65855023    -0.07550
C1578       C  0.11769987  0.34898536  0.63781185    -0.08290
C1579       C  0.10029685  0.37156149  0.65738866    -0.02840
C1580       C  0.10325137  0.37385261  0.69940715     0.03970
N1581       N  0.08971881  0.39843387  0.72141185     0.66480
H1582       H  0.11883602  0.35163291  0.75270768     0.15380
H1583       H  0.11618606  0.34714915  0.60560305     0.15090
N1584       N  0.14886184  0.30293023  0.63571398     0.74180
O1585       O  0.08785563  0.39748380  0.75884723    -0.39270
O1586       O  0.08363057  0.42276389  0.70459823    -0.39210
O1587       O  0.15513896  0.27791258  0.65057712    -0.39910
O1588       O  0.15595056  0.30724784  0.59990278    -0.39980
C1589       C  0.13167168  0.38484828  0.90446064    -0.12260
C1590       C  0.10961987  0.37599125  0.87675289     0.04750
C1591       C  0.08470614  0.39580796  0.87030989    -0.07550
C1592       C  0.07996338  0.41932276  0.89769112    -0.08290
C1593       C  0.09514777  0.41812151  0.93380266    -0.02840
C1594       C  0.12471386  0.40711700  0.93317094     0.03970
N1595       N  0.14449227  0.41282411  0.96642399     0.66480
H1596       H  0.15208422  0.37176828  0.90758147     0.15380
H1597       H  0.05901268  0.43178001  0.89636938     0.15090
N1598       N  0.06230026  0.39132668  0.84001093     0.74180
O1599       O  0.16982196  0.40007888  0.96822919    -0.39270
O1600       O  0.13726737  0.43171809  0.99335976    -0.39210
O1601       O  0.04379880  0.37061002  0.84369530    -0.39910
O1602       O  0.05413280  0.41368245  0.82011354    -0.39980
C1603       C  0.09302068  0.19401772  0.90009940    -0.12260
C1604       C  0.10099888  0.22386827  0.90946154     0.04750
C1605       C  0.09259232  0.23562715  0.94705425    -0.07550
C1606       C  0.07436415  0.21908901  0.97216695    -0.08290
C1607       C  0.06474895  0.18987086  0.96259106    -0.02840
C1608       C  0.07591278  0.17644484  0.92660417     0.03970
N1609       N  0.06815929  0.14639002  0.91473136     0.66480
H1610       H  0.09887238  0.18490949  0.87091974     0.15380
H1611       H  0.06594351  0.23037985  0.99864288     0.15090
N1612       N  0.09856256  0.26613169  0.95772407     0.74180
O1613       O  0.06971813  0.13805218  0.87855145    -0.39270
O1614       O  0.06244623  0.12722216  0.94055390    -0.39210
O1615       O  0.07732091  0.28378042  0.96694053    -0.39910
O1616       O  0.12511075  0.27514182  0.95979938    -0.39980
C1617       C  0.10769937  0.16423579  0.73927281    -0.12260
C1618       C  0.12792703  0.18136479  0.71711256     0.04750
C1619       C  0.13328350  0.17258634  0.67721108    -0.07550
C1620       C  0.11435205  0.15117707  0.65907658    -0.08290
C1621       C  0.08920694  0.13973305  0.67905628    -0.02840
C1622       C  0.08719554  0.14473536  0.72071918     0.03970
N1623       N  0.06317701  0.13318410  0.74419438     0.66480
H1624       H  0.10467584  0.16963569  0.77070198     0.15380
H1625       H  0.11663422  0.14660819  0.62733646     0.15090
N1626       N  0.15589696  0.18656493  0.65405108     0.74180
O1627       O  0.06643826  0.13047128  0.78139300    -0.39270
O1628       O  0.03799611  0.12768112  0.72890530    -0.39210
O1629       O  0.18090584  0.19250399  0.66958449    -0.39910
O1630       O  0.15265397  0.18906746  0.61684337    -0.39980
C1631       C  0.00666869  0.19501905  0.78320544    -0.12260
C1632       C  0.99975750  0.19316956  0.82383495     0.04750
C1633       C  0.01876206  0.20706914  0.85123964    -0.07550
C1634       C  0.02985279  0.23443301  0.83974076    -0.08290
C1635       C  0.03074141  0.24189928  0.79927553    -0.02840
C1636       C  0.02055645  0.22097485  0.77007603     0.03970
N1637       N  0.02107148  0.22711225  0.72819024     0.66480
H1638       H  0.99482097  0.18101192  0.76185311     0.15380
H1639       H  0.03720477  0.25002622  0.86271405     0.15090
N1640       N  0.01567332  0.20122062  0.89288657     0.74180
O1641       O  0.02094374  0.20580562  0.70288637    -0.39270
O1642       O  0.01720391  0.25349872  0.71635537    -0.39210
O1643       O  0.00837507  0.17547824  0.90370976    -0.39910
O1644       O  0.01417386  0.22283939  0.91767407    -0.39980
C1645       C  0.50024445  0.24707436  0.65625041    -0.12260
C1646       C  0.50732950  0.23882171  0.69547624     0.04750
C1647       C  0.53710335  0.23969399  0.70867841    -0.07550
C1648       C  0.55955861  0.24191047  0.68048833    -0.08290
C1649       C  0.55225695  0.25578372  0.64462114    -0.02840
C1650       C  0.52287848  0.25378205  0.62968469     0.03970
N1651       N  0.51578546  0.26112797  0.58908793     0.66480
H1652       H  0.47754188  0.24477827  0.64528117     0.15380
H1653       H  0.58243246  0.24298425  0.69111552     0.15090
N1654       N  0.54410709  0.24154707  0.75048651     0.74180
O1655       O  0.53562564  0.25888342  0.56251411    -0.39270
O1656       O  0.48934391  0.26793815  0.57906274    -0.39210
O1657       O  0.57054433  0.23741421  0.76275977    -0.39910
O1658       O  0.52491150  0.25257698  0.77422497    -0.39980
C1659       C  0.28812719  0.26974480  0.86426717    -0.12260
C1660       C  0.29120855  0.28340348  0.90249375     0.04750
C1661       C  0.26569062  0.29770708  0.91946999    -0.07550
C1662       C  0.23830190  0.29764010  0.89794776    -0.08290
C1663       C  0.23575955  0.28429348  0.85940358    -0.02840
C1664       C  0.26123481  0.26988891  0.84291795     0.03970
N1665       N  0.26008864  0.25378623  0.80542988     0.66480
H1666       H  0.30685276  0.25779513  0.85069691     0.15380
H1667       H  0.21896742  0.30881267  0.91109059     0.15090
N1668       N  0.26715964  0.31322841  0.95737109     0.74180
O1669       O  0.28043208  0.25712572  0.78003342    -0.39270
O1670       O  0.24216851  0.23247090  0.80074017    -0.39210
O1671       O  0.28806831  0.33116686  0.96469503    -0.39910
O1672       O  0.24522398  0.31275367  0.98086205    -0.39980
C1673       C  0.42645642  0.32436815  0.57836740    -0.12260
C1674       C  0.42109660  0.32843834  0.53759423     0.04750
C1675       C  0.43825901  0.34996331  0.51776535    -0.07550
C1676       C  0.46266965  0.36359229  0.53770176    -0.08290
C1677       C  0.46973841  0.35725700  0.57752143    -0.02840
C1678       C  0.44968853  0.33936597  0.59876770     0.03970
N1679       N  0.45209496  0.33675103  0.64112531     0.66480
H1680       H  0.41320514  0.30838975  0.59410482     0.15380
H1681       H  0.47667069  0.37875606  0.52175887     0.15090
N1682       N  0.43153560  0.35766237  0.47723409     0.74180
O1683       O  0.44598600  0.31241194  0.65734549    -0.39270
O1684       O  0.45533541  0.35998416  0.66267752    -0.39210
O1685       O  0.40511679  0.35652260  0.96470058    -0.39910
O1686       O  0.45160011  0.36766774  0.45504181    -0.39980
C1687       C  0.43278065  0.32391228  0.75552812    -0.12260
C1688       C  0.45529362  0.34487175  0.76352056     0.04750
C1689       C  0.44863695  0.36900884  0.79035674    -0.07550
C1690       C  0.42225413  0.36847550  0.81289572    -0.08290
C1691       C  0.40472303  0.34268419  0.81236895    -0.02840
C1692       C  0.40626221  0.32416570  0.77789829     0.03970
N1693       N  0.38275985  0.30359707  0.76806811     0.66480
H1694       H  0.43609826  0.30693471  0.73244348     0.15380
H1695       H  0.41971665  0.38446274  0.83747294     0.15090
N1696       N  0.46945632  0.39238573  0.79848631     0.74180
O1697       O  0.38429923  0.28755505  0.73665135    -0.39270
O1698       O  0.35849535  0.30464197  0.78712791    -0.39210
O1699       O  0.46034957  0.41923410  0.79967379    -0.39910
O1700       O  0.49501083  0.38604882  0.81229053    -0.39980
C1701       C  0.44961953  0.19581646  0.55144755    -0.12260
C1702       C  0.41829534  0.19937210  0.55020817     0.04750
C1703       C  0.40075893  0.17867432  0.57080414    -0.07550
C1704       C  0.41531968  0.15596628  0.59293196    -0.08290
C1705       C  0.44668214  0.15200095  0.59268998    -0.02840
C1706       C  0.46384273  0.17211644  0.57088064     0.03970
N1707       N  0.49587951  0.16962249  0.56943235     0.66480
H1708       H  0.46340476  0.21152642  0.53606452     0.15380
H1709       H  0.40213199  0.14131640  0.61088929     0.15090
N1710       N  0.36863063  0.17982698  0.56924098     0.74180
O1711       O  0.50830015  0.14442166  0.56351871    -0.39270
O1712       O  0.51155950  0.19279071  0.56818212    -0.39210
O1713       O  0.35520119  0.18667403  0.53744160    -0.39910
O1714       O  0.35359283  0.17029995  0.59794440    -0.39980
C1715       C  0.44268999  0.17974473  0.78669866    -0.12260
C1716       C  0.46049722  0.16503054  0.81510353     0.04750
C1717       C  0.45505207  0.17082167  0.85602028    -0.07550
C1718       C  0.43622488  0.19517109  0.86695404    -0.08290
C1719       C  0.42304236  0.21354724  0.83802404    -0.02840
C1720       C  0.42438460  0.20443769  0.79761082     0.03970
N1721       N  0.40795948  0.22039177  0.76764469     0.66480
H1722       H  0.44550211  0.17397587  0.75535661     0.15380
H1723       H  0.43393363  0.20142856  0.89822420     0.15090
N1724       N  0.46827474  0.15253736  0.88653795     0.74180
O1725       O  0.41637639  0.21944903  0.73173392    -0.39270
O1726       O  0.38309542  0.23256516  0.77612500    -0.39210
O1727       O  0.45746083  0.15328319  0.92126754    -0.39910
O1728       O  0.48786127  0.13282463  0.87806145    -0.39980
C1729       C  0.78503386  0.23304118  0.86324534    -0.12260
C1730       C  0.79435880  0.26255362  0.85904369     0.04750
C1731       C  0.78165544  0.28526858  0.88430080    -0.07550
C1732       C  0.76014238  0.27776167  0.91286149    -0.08290
C1733       C  0.75087831  0.24823821  0.91709762    -0.02840
C1734       C  0.76360162  0.22553890  0.89188413     0.03970
N1735       N  0.75444213  0.19487122  0.89441657     0.66480
H1736       H  0.79570311  0.21542629  0.84546876     0.15380
H1737       H  0.74906008  0.29539095  0.93016241     0.15090
N1738       N  0.78989498  0.31611373  0.88073461     0.74180
O1739       O  0.75774407  0.17704876  0.86496901    -0.39270
O1740       O  0.74482447  0.18490119  0.92679733    -0.39210
O1741       O  0.79799539  0.32601548  0.84756574    -0.39910
O1742       O  0.78663601  0.33421650  0.90988804    -0.39980
C1743       C  0.60563689  0.14285940  0.56295342    -0.12260
C1744       C  0.61534016  0.17255370  0.56895903     0.04750
C1745       C  0.60243180  0.18911383  0.60109020    -0.07550
C1746       C  0.57929089  0.17658305  0.62409838    -0.08290
C1747       C  0.56852600  0.14745937  0.61653593    -0.02840
C1748       C  0.58311537  0.13015897  0.58632553     0.03970
N1749       N  0.57436447  0.10010259  0.57725014     0.66480
H1750       H  0.61518647  0.12936666  0.53883167     0.15380
H1751       H  0.56911951  0.18984870  0.64770636     0.15090
N1752       N  0.61149438  0.21908131  0.60964539     0.74180
O1753       O  0.56703995  0.09285719  0.54197348    -0.39270
O1754       O  0.58012119  0.07978643  0.60180120    -0.39210
O1755       O  0.60619908  0.23946421  0.58503306    -0.39910
O1756       O  0.62425538  0.22537173  0.64233892    -0.39980
C1757       C  0.61338727  0.12984039  0.83312373    -0.12260
C1758       C  0.60643867  0.14024156  0.79499978     0.04750
C1759       C  0.62954720  0.15228729  0.77174578    -0.07550
C1760       C  0.65625103  0.16055274  0.79102925    -0.08290
C1761       C  0.65758541  0.16016855  0.83275978    -0.02840
C1762       C  0.64057932  0.13812030  0.85144286     0.03970
N1763       N  0.64693351  0.13011601  0.89203764     0.66480
H1764       H  0.59652945  0.11858391  0.85002910     0.15380
H1765       H  0.67221158  0.17386403  0.77533372     0.15090
N1766       N  0.62503575  0.15870756  0.73015310     0.74180
O1767       O  0.62902663  0.11433210  0.91115361    -0.39270
O1768       O  0.67147313  0.13714420  0.90813168    -0.39210
O1769       O  0.60622736  0.14425126  0.70958472    -0.39910
O1770       O  0.64144721  0.17712198  0.71296833    -0.39980
C1771       C  0.58551143  0.29685250  0.50183646    -0.12260
C1772       C  0.61678411  0.29319740  0.50439635     0.04750
C1773       C  0.63373804  0.31926307  0.51315406    -0.07550
C1774       C  0.61925765  0.34610265  0.52522898    -0.08290
C1775       C  0.58806302  0.34851409  0.52791109    -0.02840
C1776       C  0.57111987  0.32445916  0.51203117     0.03970
N1777       N  0.53922080  0.32755016  0.50789024     0.66480
H1778       H  0.57215742  0.27797828  0.49240762     0.15380
H1779       H  0.63266711  0.36437810  0.53667985     0.15090
N1780       N  0.66574093  0.31882567  0.51183985     0.74180
O1781       O  0.52756635  0.35311106  0.50325257    -0.39270
O1782       O  0.52310182  0.30481969  0.50325036    -0.39210
O1783       O  0.67877721  0.31500428  0.47876292    -0.39910
O1784       O  0.68054246  0.32801301  0.54170568    -0.39980
C1785       C  0.60739912  0.32138012  0.84163282    -0.12260
C1786       C  0.62526339  0.29794611  0.82564205     0.04750
C1787       C  0.63078200  0.29689267  0.78414929    -0.07550
C1788       C  0.61553755  0.31732096  0.75950432    -0.08290
C1789       C  0.59415664  0.33777342  0.77502114    -0.02840
C1790       C  0.59164610  0.34131122  0.81683537     0.03970
N1791       N  0.57090253  0.36286103  0.83407975     0.66480
H1792       H  0.60321728  0.32208188  0.87346609     0.15380
H1793       H  0.61731591  0.31456222  0.72739548     0.15090
N1794       N  0.64889171  0.27331476  0.76623423     0.74180
O1795       O  0.56208789  0.36041323  0.86957379    -0.39270
O1796       O  0.56278619  0.38555030  0.81480030    -0.39210
O1797       O  0.66975029  0.26105999  0.78574949    -0.39910
O1798       O  0.64526259  0.26576936  0.73002401    -0.39980
C1799       C  0.53919134  0.20094930  0.88609168    -0.12260
C1800       C  0.54473662  0.17960644  0.91507367     0.04750
C1801       C  0.52389912  0.17614986  0.94581424    -0.07550
C1802       C  0.50264177  0.19900430  0.95242534    -0.08290
C1803       C  0.50375461  0.22490186  0.92970923    -0.02840
C1804       C  0.52398877  0.22671999  0.89803986     0.03970
N1805       N  0.53041447  0.25491136  0.88009286     0.66480
H1806       H  0.55349656  0.20183061  0.86020187     0.15380
H1807       H  0.48545824  0.19660341  0.97462973     0.15090
N1808       N  0.52397307  0.14960889  0.96921939     0.74180
O1809       O  0.52761609  0.27901301  0.90017813    -0.39270
O1810       O  0.54374188  0.25550413  0.84715755    -0.39210
O1811       O  0.50005479  0.14123825  0.98494797    -0.39910
O1812       O  0.54636991  0.13209308  0.96914856    -0.39980
C1813       C  0.51458279  0.99587048  0.80642950    -0.12260
C1814       C  0.53877789  0.97701014  0.79683647     0.04750
C1815       C  0.55842807  0.98471064  0.76585453    -0.07550
C1816       C  0.55243738  0.01063472  0.74396599    -0.08290
C1817       C  0.52732141  0.02866970  0.75240860    -0.02840
C1818       C  0.50817178  0.02127108  0.78414047     0.03970
N1819       N  0.48121757  0.03826947  0.79257015     0.66480
H1820       H  0.49874100  0.98902900  0.82870159     0.15380
H1821       H  0.56763781  0.01710393  0.72074964     0.15090
N1822       N  0.58396666  0.96604139  0.75588696     0.74180
O1823       O  0.47074831  0.03937512  0.82749255    -0.39270
O1824       O  0.46590281  0.04917748  0.76451961    -0.39210
O1825       O  0.59563536  0.94924655  0.78164741    -0.39910
O1826       O  0.59640063  0.96792750  0.72232220    -0.39980
C1827       C  0.52057829  0.46279377  0.76282683    -0.12260
C1828       C  0.52526045  0.46525473  0.72113898     0.04750
C1829       C  0.52927002  0.49390083  0.70584755    -0.07550
C1830       C  0.52828775  0.51878384  0.73170790    -0.08290
C1831       C  0.52138416  0.51671234  0.77283864    -0.02840
C1832       C  0.51884775  0.48799556  0.78876541     0.03970
N1833       N  0.51506172  0.48381595  0.83077290     0.66480
H1834       H  0.51850623  0.44095872  0.77574778     0.15380
H1835       H  0.53131483  0.54037895  0.71840178     0.15090
N1836       N  0.53346688  0.49856397  0.66409641     0.74180
O1837       O  0.49812408  0.46364789  0.84282538    -0.39270
O1838       O  0.53274885  0.49612037  0.85530663    -0.39210
O1839       O  0.51208368  0.49392851  0.64016725    -0.39910
O1840       O  0.55533479  0.51362369  0.65273905    -0.39980
C1841       C  0.49883235  0.71563389  0.80484379    -0.12260
C1842       C  0.46872176  0.71979958  0.81512130     0.04750
C1843       C  0.45950965  0.74539618  0.83703080    -0.07550
C1844       C  0.48058866  0.76758371  0.84379694    -0.08290
C1845       C  0.50987355  0.76357253  0.82961951    -0.02840
C1846       C  0.51983241  0.73661968  0.81308373     0.03970
N1847       N  0.55068266  0.73055686  0.80276861     0.66480
H1848       H  0.50723523  0.69626312  0.79033351     0.15380
H1849       H  0.47348318  0.78912965  0.85606940     0.15090
N1850       N  0.42917293  0.74975126  0.85051263     0.74180
O1851       O  0.56134480  0.70442177  0.80601105    -0.39270
O1852       O  0.56732221  0.75072948  0.79001328    -0.39210
O1853       O  0.42329038  0.76842362  0.87823947    -0.39910
O1854       O  0.40785025  0.73653475  0.83321753    -0.39980
C1855       C  0.44153655  0.80062173  0.95463012    -0.12260
C1856       C  0.41271433  0.81308214  0.95772179     0.04750
C1857       C  0.40709979  0.84198986  0.94256026    -0.07550
C1858       C  0.43084475  0.85743859  0.92471200    -0.08290
C1859       C  0.45995252  0.84506472  0.92316863    -0.02840
C1860       C  0.46509846  0.81659325  0.93909317     0.03970
N1861       N  0.49466175  0.80422858  0.94166166     0.66480
H1862       H  0.44650434  0.77927394  0.96811806     0.15380
H1863       H  0.42659052  0.87899933  0.91156500     0.15090
N1864       N  0.37791424  0.85596056  0.94547249     0.74180
O1865       O  0.49964058  0.77749450  0.93074762    -0.39270
O1866       O  0.51592895  0.82017937  0.95411114    -0.39210
O1867       O  0.35490687  0.84050150  0.45130060    -0.39910
O1868       O  0.37455297  0.88359113  0.93954128    -0.39980
C1869       C  0.44108531  0.85543977  0.68242463    -0.12260
C1870       C  0.44933794  0.85362088  0.72281702     0.04750
C1871       C  0.43172127  0.83550953  0.74748924    -0.07550
C1872       C  0.41089215  0.81569343  0.73011747    -0.08290
C1873       C  0.40556449  0.81454711  0.68888476    -0.02840
C1874       C  0.41853727  0.83706625  0.66549715     0.03970
N1875       N  0.41106872  0.83976150  0.62393343     0.66480
H1876       H  0.45405591  0.86938800  0.66323650     0.15380
H1877       H  0.40052885  0.79918480  0.74850417     0.15090
N1878       N  0.43673610  0.83502359  0.78985425     0.74180
O1879       O  0.42957528  0.85041803  0.59997238    -0.39270
O1880       O  0.38449912  0.83604706  0.61238450    -0.39210
O1881       O  0.44261034  0.85895879  0.80859768    -0.39910
O1882       O  0.43008698  0.81231529  0.80944362    -0.39980
C1883       C  0.39162436  0.67708016  0.96112917    -0.12260
C1884       C  0.41053632  0.69326562  0.98711952     0.04750
C1885       C  0.44001742  0.68145983  0.99246663    -0.07550
C1886       C  0.44995290  0.65555233  0.97050545    -0.08290
C1887       C  0.43176002  0.64123663  0.94176213    -0.02840
C1888       C  0.40158551  0.65163309  0.93871088     0.03970
N1889       N  0.38077819  0.63691283  0.91222322     0.66480
H1890       H  0.36872734  0.68474336  0.95742159     0.15380
H1891       H  0.47295120  0.64807142  0.97369245     0.15090
N1892       N  0.46057549  0.69570086  0.51884332     0.74180
O1893       O  0.38204333  0.60888459  0.90697411    -0.39270
O1894       O  0.35956262  0.65150185  0.89652701    -0.39210
O1895       O  0.46910150  0.72175253  0.51170065    -0.39910
O1896       O  0.47520910  0.68021352  0.54342358    -0.39980
C1897       C  0.42580710  0.61904119  0.66204197    -0.12260
C1898       C  0.42514445  0.61731502  0.70365848     0.04750
C1899       C  0.40210411  0.63344166  0.72387304    -0.07550
C1900       C  0.39060290  0.65958354  0.70626737    -0.08290
C1901       C  0.39916788  0.66666954  0.66756578    -0.02840
C1902       C  0.41364364  0.64440687  0.64348575     0.03970
N1903       N  0.41856803  0.64874021  0.60151950     0.66480
H1904       H  0.44106353  0.60439810  0.64558811     0.15380
H1905       H  0.37794419  0.67582704  0.72398498     0.15090
N1906       N  0.39547965  0.62724244  0.76485662     0.74180
O1907       O  0.43748788  0.63275623  0.58264907    -0.39270
O1908       O  0.40188014  0.66632687  0.58222728    -0.39210
O1909       O  0.40380888  0.60277521  0.77969983    -0.39910
O1910       O  0.37934854  0.64501720  0.78549540    -0.39980
C1911       C  0.57488357  0.69239044  0.91715690    -0.12260
C1912       C  0.60198379  0.67667410  0.92236062     0.04750
C1913       C  0.60352460  0.64644762  0.90890917    -0.07550
C1914       C  0.57752465  0.63260921  0.89308398    -0.08290
C1915       C  0.54952451  0.64765686  0.89158161    -0.02840
C1916       C  0.54867897  0.67824247  0.90367363     0.03970
N1917       N  0.52106203  0.69472830  0.90656372     0.66480
H1918       H  0.57301097  0.71512425  0.92873246     0.15380
H1919       H  0.57898703  0.60947282  0.88303882     0.15090
N1920       N  0.63094688  0.62932179  0.91232337     0.74180
O1921       O  0.50096651  0.68585720  0.92950626    -0.39270
O1922       O  0.52002924  0.72146985  0.89561360    -0.39210
O1923       O  0.65563354  0.64229203  0.91669183    -0.39910
O1924       O  0.63093034  0.60119613  0.90820469    -0.39980
C1925       C  0.59252455  0.65663085  0.64335933    -0.12260
C1926       C  0.60990339  0.67813292  0.66373181     0.04750
C1927       C  0.60943510  0.67875601  0.70587843    -0.07550
C1928       C  0.58808781  0.66170066  0.72580680    -0.08290
C1929       C  0.56674628  0.64470107  0.70478286    -0.02840
C1930       C  0.57012551  0.64060820  0.66307553     0.03970
N1931       N  0.54946567  0.62274294  0.64002858     0.66480
H1932       H  0.59362838  0.65532963  0.61111009     0.15380
H1933       H  0.58598025  0.66413576  0.75787161     0.15090
N1934       N  0.62854012  0.69867901  0.72835953     0.74180
O1935       O  0.54649508  0.62646660  0.60297063    -0.39270
O1936       O  0.53532434  0.60199557  0.65602348    -0.39210
O1937       O  0.65137573  0.70945722  0.71243700    -0.39910
O1938       O  0.62389423  0.70404261  0.76496904    -0.39980
C1939       C  0.60283098  0.82142599  0.97674458    -0.12260
C1940       C  0.60822721  0.79319291  0.95793135     0.04750
C1941       C  0.60245269  0.79073721  0.91678756    -0.07550
C1942       C  0.58978725  0.81497319  0.89633227    -0.08290
C1943       C  0.58107753  0.84241280  0.91530203    -0.02840
C1944       C  0.58890981  0.84587161  0.95633221     0.03970
N1945       N  0.58410800  0.87389969  0.97731068     0.66480
H1946       H  0.60974037  0.82451673  0.00744783     0.15380
H1947       H  0.58673716  0.81182986  0.86454371     0.15090
N1948       N  0.61019448  0.76390952  0.89473958     0.74180
O1949       O  0.58027648  0.87448530  0.01460043    -0.39270
O1950       O  0.58796197  0.89823373  0.95983553    -0.39210
O1951       O  0.59258715  0.75372872  0.86847335    -0.39910
O1952       O  0.63627429  0.75296818  0.89720112    -0.39980
C1953       C  0.57600431  0.87115127  0.63653368    -0.12260
C1954       C  0.58651653  0.87660494  0.67517063     0.04750
C1955       C  0.61393990  0.86259003  0.68587012    -0.07550
C1956       C  0.62209631  0.83538792  0.66632322    -0.08290
C1957       C  0.60421114  0.82399563  0.63528769    -0.02840
C1958       C  0.58220182  0.84328822  0.61793627     0.03970
N1959       N  0.56402198  0.83404710  0.58434833     0.66480
H1960       H  0.55719508  0.88444609  0.62614899     0.15380
H1961       H  0.64006662  0.82164452  0.67811428     0.15090
N1962       N  0.62953921  0.87208272  0.72153886     0.74180
O1963       O  0.53879802  0.84623816  0.57837809    -0.39270
O1964       O  0.57361079  0.81495279  0.55917806    -0.39210
O1965       O  0.65138583  0.85700071  0.73473435    -0.39910
O1966       O  0.62234137  0.89634497  0.73916071    -0.39980
C1967       C  0.51089865  0.78016738  0.55510728    -0.12260
C1968       C  0.49684532  0.77900762  0.59202822     0.04750
C1969       C  0.50426965  0.75573287  0.61788923    -0.07550
C1970       C  0.51515597  0.72912793  0.60107752    -0.08290
C1971       C  0.52626919  0.72832810  0.56187298    -0.02840
C1972       C  0.52459562  0.75456084  0.53909061     0.03970
N1973       N  0.53532236  0.75540870  0.99947500     0.66480
H1974       H  0.50620353  0.79880711  0.53576479     0.15380
H1975       H  0.51851844  0.71002356  0.62004732     0.15090
N1976       N  0.49833242  0.75816650  0.66006128     0.74180
O1977       O  0.52752619  0.73552973  0.97453636    -0.39270
O1978       O  0.54913123  0.77786191  0.98773661    -0.39210
O1979       O  0.49829972  0.73520780  0.68132454    -0.39910
O1980       O  0.49629891  0.78360425  0.67693694    -0.39980
C1981       C  0.96571378  0.00462235  0.98499435    -0.12260
C1982       C  0.99065373  0.99295172  0.96405919     0.04750
C1983       C  0.01659294  0.01057405  0.96219169    -0.07550
C1984       C  0.01704659  0.03869256  0.48214178    -0.08290
C1985       C  0.99273020  0.04965634  0.50478824    -0.02840
C1986       C  0.96611168  0.03284028  0.50495558     0.03970
N1987       N  0.93951197  0.04388364  0.52491228     0.66480
H1988       H  0.94609678  0.99088383  0.98713793     0.15380
H1989       H  0.03719959  0.05176736  0.48137708     0.15090
N1990       N  0.04313667  0.99959099  0.94216756     0.74180
O1991       O  0.91898714  0.02614851  0.53360676    -0.39270
O1992       O  0.93485142  0.07161211  0.53001558    -0.39210
O1993       O  0.04135292  0.98114681  0.91323465    -0.39910
O1994       O  0.06843061  0.00967814  0.95173924    -0.39980
C1995       C  0.04285610  0.52079136  0.97412650    -0.12260
C1996       C  0.01445067  0.53321356  0.96646337     0.04750
C1997       C  0.99022353  0.52456141  0.99064443    -0.07550
C1998       C  0.99495180  0.50347859  0.52097784    -0.08290
C1999       C  0.02321573  0.49069283  0.52840706    -0.02840
C2000       C  0.04761860  0.49977532  0.50481381     0.03970
N2001       N  0.07725451  0.48761212  0.51101018     0.66480
H2002       H  0.06171523  0.52854383  0.95730530     0.15380
H2003       H  0.97592526  0.49544326  0.53724011     0.15090
N2004       N  0.96046953  0.53642135  0.98437266     0.74180
O2005       O  0.09664464  0.48888970  0.48389502    -0.39270
O2006       O  0.08499746  0.47781171  0.54461365    -0.39210
O2007       O  0.95185664  0.54381140  0.94998602    -0.39910
O2008       O  0.94181648  0.53714885  0.01253086    -0.39980
C2009       C  0.02808024  0.76693539  0.93366806    -0.12260
C2010       C  0.01432251  0.74461584  0.91116049     0.04750
C2011       C  0.98311110  0.74196470  0.91182705    -0.07550
C2012       C  0.96686950  0.75739356  0.94096541    -0.08290
C2013       C  0.98163080  0.77615970  0.96804290    -0.02840
C2014       C  0.01262719  0.78034726  0.96476702     0.03970
N2015       N  0.02812503  0.80075128  0.99032570     0.66480
H2016       H  0.05215610  0.76936137  0.93253939     0.15380
H2017       H  0.94268489  0.75627282  0.94091397     0.15090
N2018       N  0.96815406  0.72167637  0.88552808     0.74180
O2019       O  0.03801638  0.79186708  0.02339098    -0.39270
O2020       O  0.03822895  0.82426033  0.97580874    -0.39210
O2021       O  0.95633955  0.69880929  0.89941549    -0.39910
O2022       O  0.96110278  0.72985386  0.85095605    -0.39980
C2023       C  0.76580041  0.74129723  0.64383473    -0.12260
C2024       C  0.78271265  0.76598238  0.63357401     0.04750
C2025       C  0.77292277  0.78404312  0.60168536    -0.07550
C2026       C  0.74720259  0.77617722  0.57972395    -0.08290
C2027       C  0.73054810  0.75117606  0.58954754    -0.02840
C2028       C  0.73986409  0.73358970  0.62230181     0.03970
N2029       N  0.72396308  0.70723050  0.63313555     0.66480
H2030       H  0.77389561  0.72682418  0.66718204     0.15380
H2031       H  0.73937859  0.79038104  0.55594065     0.15090
N2032       N  0.78848106  0.81079719  0.59201153     0.74180
O2033       O  0.71217423  0.69067386  0.60663730    -0.39270
O2034       O  0.72426822  0.69874140  0.66881997    -0.39210
O2035       O  0.78780288  0.82041302  0.55687295    -0.39910
O2036       O  0.79995731  0.82676115  0.61939886    -0.39980
C2037       C  0.93463323  0.66010082  0.78978748    -0.12260
C2038       C  0.96583046  0.66193772  0.79004760     0.04750
C2039       C  0.97871935  0.68797010  0.77474671    -0.07550
C2040       C  0.96049924  0.71231879  0.76335842    -0.08290
C2041       C  0.92928094  0.71094216  0.76312659    -0.02840
C2042       C  0.91627659  0.68395636  0.77656329     0.03970
N2043       N  0.88455837  0.68099354  0.78019520     0.66480
H2044       H  0.92432189  0.64120224  0.80362719     0.15380
H2045       H  0.97081843  0.73275448  0.75530944     0.15090
N2046       N  0.01063709  0.69036795  0.77314266     0.74180
O2047       O  0.87226724  0.65720181  0.76822789    -0.39270
O2048       O  0.86998385  0.69921460  0.80216880    -0.39210
O2049       O  0.02643196  0.66773174  0.76382628    -0.39910
O2050       O  0.02309599  0.71519775  0.77875920    -0.39980
C2051       C  0.92649784  0.71402111  0.52768913    -0.12260
C2052       C  0.93402921  0.72290924  0.56702720     0.04750
C2053       C  0.95829818  0.70736921  0.58481297    -0.07550
C2054       C  0.97660592  0.68767751  0.56194133    -0.08290
C2055       C  0.97181657  0.68154883  0.52129359    -0.02840
C2056       C  0.94387862  0.69220700  0.50548071     0.03970
N2057       N  0.93162235  0.68015470  0.46889052     0.66480
H2058       H  0.90697837  0.72426781  0.51414627     0.15380
H2059       H  0.99474539  0.67657713  0.57689156     0.15090
N2060       N  0.96413601  0.71011496  0.62672055     0.74180
O2061       O  0.91028351  0.69367823  0.45184377    -0.39270
O2062       O  0.93706741  0.65334989  0.95851862    -0.39210
O2063       O  0.94271082  0.70884485  0.65092293    -0.39910
O2064       O  0.99051918  0.70686996  0.63960627    -0.39980
C2065       C  0.90602150  0.85540924  0.78009288    -0.12260
C2066       C  0.89368493  0.82696431  0.78772093     0.04750
C2067       C  0.89928905  0.81591041  0.82661041    -0.07550
C2068       C  0.91727330  0.83228306  0.85472372    -0.08290
C2069       C  0.93026737  0.86037471  0.84681671    -0.02840
C2070       C  0.92332190  0.87225438  0.80869273     0.03970
N2071       N  0.93290108  0.90161157  0.79847757     0.66480
H2072       H  0.90217799  0.86482552  0.75098798     0.15380
H2073       H  0.92166040  0.82226477  0.88332310     0.15090
N2074       N  0.88819838  0.78740814  0.83790759     0.74180
O2075       O  0.93867619  0.90742670  0.76266516    -0.39270
O2076       O  0.93087457  0.92289327  0.82373413    -0.39210
O2077       O  0.90468023  0.76978961  0.85745445    -0.39910
O2078       O  0.86066934  0.78212489  0.83482922    -0.39980
C2079       C  0.87989690  0.87278994  0.59788118    -0.12260
C2080       C  0.87464209  0.85613814  0.56260770     0.04750
C2081       C  0.88116415  0.86927739  0.52589289    -0.07550
C2082       C  0.89863626  0.89522088  0.52628348    -0.08290
C2083       C  0.91329885  0.90421247  0.56162724    -0.02840
C2084       C  0.90116432  0.89558575  0.59829813     0.03970
N2085       N  0.91261770  0.90730375  0.63567066     0.66480
H2086       H  0.87119859  0.86508134  0.62574183     0.15380
H2087       H  0.90529651  0.90469044  0.49831359     0.15090
N2088       N  0.87227774  0.85529647  0.48862228     0.74180
O2089       O  0.90659448  0.89492808  0.66810442    -0.39270
O2090       O  0.92797222  0.93074676  0.63664954    -0.39210
O2091       O  0.88264516  0.86403199  0.45598467    -0.39910
O2092       O  0.85264997  0.83532417  0.48788723    -0.39980
C2093       C  0.24955786  0.72285806  0.66146139    -0.12260
C2094       C  0.22978683  0.74678051  0.65444969     0.04750
C2095       C  0.23611141  0.76712066  0.62389435    -0.07550
C2096       C  0.26162014  0.76244791  0.60040096    -0.08290
C2097       C  0.28179041  0.73905666  0.60804674    -0.02840
C2098       C  0.27565477  0.71872847  0.63869832     0.03970
N2099       N  0.29566657  0.69403832  0.64706685     0.66480
H2100       H  0.24429567  0.70701094  0.68428083     0.15380
H2101       H  0.26724465  0.77884961  0.57842933     0.15090
N2102       N  0.21814411  0.79371422  0.61824051     0.74180
O2103       O  0.29546850  0.68203419  0.68081392    -0.39270
O2104       O  0.31193746  0.68257885  0.61993603    -0.39210
O2105       O  0.20793822  0.80828501  0.64800074    -0.39910
O2106       O  0.21600240  0.80500644  0.58412908    -0.39980
C2107       C  0.07834770  0.78444952  0.84326197    -0.12260
C2108       C  0.10731310  0.79668874  0.84365717     0.04750
C2109       C  0.11042275  0.82566321  0.86075070    -0.07550
C2110       C  0.08484219  0.84182954  0.87456940    -0.08290
C2111       C  0.05564876  0.83057829  0.87066433    -0.02840
C2112       C  0.05241742  0.80143349  0.85412178     0.03970
N2113       N  0.02332947  0.78965601  0.84462038     0.66480
H2114       H  0.07549956  0.76279639  0.82878342     0.15380
H2115       H  0.08770639  0.86385862  0.88796377     0.15090
N2116       N  0.13921285  0.83960154  0.86204268     0.74180
O2117       O  0.02078456  0.76234064  0.83539324    -0.39270
O2118       O  0.00108321  0.80683140  0.83917903    -0.39210
O2119       O  0.16288736  0.82391703  0.86014915    -0.39910
O2120       O  0.14120784  0.86758205  0.86672575    -0.39980
C2121       C  0.07672149  0.84753313  0.54401194    -0.12260
C2122       C  0.05390431  0.86325563  0.56498733     0.04750
C2123       C  0.05550905  0.86272099  0.60705210    -0.07550
C2124       C  0.07643498  0.84389610  0.62664563    -0.08290
C2125       C  0.09596103  0.82425654  0.60540739    -0.02840
C2126       C  0.09718769  0.82758426  0.56329132     0.03970
N2127       N  0.11767488  0.80959290  0.53947035     0.66480
H2128       H  0.07731743  0.84918239  0.51195671     0.15380
H2129       H  0.07479347  0.84198182  0.65871885     0.15090
N2130       N  0.03435454  0.87963197  0.63042439     0.74180
O2131       O  0.11491535  0.80814313  0.50195957    -0.39270
O2132       O  0.13984494  0.79667866  0.55541997    -0.39210
O2133       O  0.00683612  0.87432515  0.62750072    -0.39910
O2134       O  0.04280871  0.90235473  0.65005833    -0.39980
C2135       C  0.11850582  0.66034158  0.58713556    -0.12260
C2136       C  0.10027653  0.68632787  0.58872818     0.04750
C2137       C  0.07184639  0.68498605  0.57175851    -0.07550
C2138       C  0.05885508  0.65707125  0.56742949    -0.08290
C2139       C  0.07733389  0.63375819  0.55401344    -0.02840
C2140       C  0.10789147  0.63446636  0.56617838     0.03970
N2141       N  0.12753664  0.60937923  0.55761396     0.66480
H2142       H  0.14041555  0.66044601  0.60095477     0.15380
H2143       H  0.03546675  0.65543454  0.56145922     0.15090
N2144       N  0.05722273  0.71204401  0.55898442     0.74180
O2145       O  0.15495354  0.61050052  0.56644027    -0.39270
O2146       O  0.11735035  0.58545915  0.54260913    -0.39210
O2147       O  0.07219002  0.73156904  0.54159317    -0.39910
O2148       O  0.03084770  0.71833121  0.56932157    -0.39980
C2149       C  0.12488288  0.67425674  0.82264099    -0.12260
C2150       C  0.11973605  0.68177149  0.78268931     0.04750
C2151       C  0.10179526  0.66227101  0.75908416    -0.07550
C2152       C  0.08572552  0.63921998  0.77752566    -0.08290
C2153       C  0.08776712  0.63432086  0.81879082    -0.02840
C2154       C  0.11003127  0.65017575  0.84045186     0.03970
N2155       N  0.11622558  0.64316621  0.88140639     0.66480
H2156       H  0.13964742  0.68808725  0.84056013     0.15380
H2157       H  0.06959952  0.62661231  0.76013629     0.15090
N2158       N  0.09936880  0.66579626  0.71667157     0.74180
O2159       O  0.12859330  0.66198536  0.90446078    -0.39270
O2160       O  0.11196245  0.61708607  0.89365856    -0.39210
O2161       O  0.12221275  0.67210442  0.69679172    -0.39910
O2162       O  0.07587620  0.65826944  0.69828716    -0.39980
C2163       C  0.00637151  0.84404835  0.71140056    -0.12260
C2164       C  0.98953609  0.81916244  0.69957002     0.04750
C2165       C  0.99328404  0.79184501  0.71905406    -0.07550
C2166       C  0.01003008  0.79202034  0.75340340    -0.08290
C2167       C  0.03486419  0.80984798  0.75135067    -0.02840
C2168       C  0.03129824  0.83879371  0.73610668     0.03970
N2169       N  0.05445254  0.86048460  0.74113305     0.66480
H2170       H  0.00137741  0.86600638  0.70012312     0.15380
H2171       H  0.01199539  0.77076187  0.76773480     0.15090
N2172       N  0.98721558  0.76366967  0.69930430     0.74180
O2173       O  0.05048497  0.88696365  0.72980070    -0.39270
O2174       O  0.07888281  0.85342829  0.75770984    -0.39210
O2175       O  0.96635911  0.76123898  0.67417855    -0.39910
O2176       O  0.00593417  0.74239382  0.70214869    -0.39980
loop_ 
_geom_bond_atom_site_label_1 
_geom_bond_atom_site_label_2 
_geom_bond_distance 
_geom_bond_site_symmetry_2 
_ccdc_geom_bond_type 
O1           Ni7   1.935       .  S
O1           C22   1.275       .  A
O2          Ni25   1.873       .  S
O2           C11   1.278       .  A
O3           Ni7   1.845       .  S
O3          Ni25   1.847       .  S
O3          Ni19   1.842       .  S
O3           H26   0.962       .  S
C4           O21   1.239       .  A
C4           O13   1.296       .  A
C4         C1020   1.497       .  S
O5          Ni24   1.981       .  S
O5           C11   1.299       .  A
O6          Ni24   1.940       .  S
O6            C8   1.273       .  A
Ni7          O10   1.882       .  S
Ni7          O12   1.892       .  S
C8           O18   1.280       .  A
C8         C1062   1.512       .  S
O9          Ni25   1.959       .  S
O9           C15   1.291       .  A
O10          C15   1.286       .  A
C11        C1006   1.475       .  S
O12          C14   1.255       .  A
O13         Ni24   2.044       .  S
C14          O20   1.292       .  A
C14        C1037   1.517       .  S
C15        C1048   1.474       .  S
H16          O17   0.967       .  S
O17         Ni25   1.910       .  S
O17         Ni19   1.837       .  S
O17         Ni24   1.901       .  S
O18         Ni19   1.981       .  S
Ni19         O23   1.816       .  S
Ni19         O21   1.847       .  S
O20         Ni25   2.017       .  S
C22          O23   1.243       .  A
C22        C1079   1.437       .  S
O27         Ni33   1.931       .  S
O27          C48   1.277       .  A
O28         Ni51   1.874       .  S
O28          C37   1.274       .  A
O29         Ni33   1.903       .  S
O29         Ni51   1.888       .  S
O29         Ni45   1.885       .  S
O29          H52   0.961       .  S
C30          O47   1.302       .  A
C30          O39   1.276       .  A
C30         C953   1.515       .  S
O31         Ni50   1.970       .  S
O31          C37   1.298       .  A
O32         Ni50   2.017       .  S
O32          C34   1.281       .  A
Ni33         O36   1.914       .  S
Ni33         O38   1.921       .  S
C34          O44   1.251       .  A
C34         C978   1.557       .  S
O35         Ni51   1.928       .  S
O35          C41   1.264       .  A
O36          C41   1.266       .  A
C37         C936   1.479       .  S
O38          C40   1.276       .  A
O39         Ni50   1.904       .  S
C40          O46   1.301       .  A
C40         C964   1.526       .  S
C41         C992   1.478       .  S
H42          O43   0.966       .  S
O43         Ni51   1.892       .  S
O43         Ni45   1.865       .  S
O43         Ni50   1.913       .  S
O44         Ni45   1.910       .  S
Ni45         O49   1.849       .  S
Ni45         O47   1.992       .  S
O46         Ni51   2.023       .  S
C48          O49   1.257       .  A
C48        C1076   1.411       .  S
O53         Ni59   1.847       .  S
O53          C74   1.261       .  A
O54         Ni77   1.856       .  S
O54          C63   1.267       .  A
O55         Ni59   1.846       .  S
O55         Ni77   1.889       .  S
O55         Ni71   1.887       .  S
O55          H78   0.962       .  S
C56          O73   1.265       .  A
C56          O65   1.304       .  A
C56         C950   1.486       .  S
O57         Ni76   2.025       .  S
O57          C63   1.308       .  A
O58         Ni76   1.982       .  S
O58          C60   1.284       .  A
Ni59       O1150   1.900       .  S
Ni59       O1152   1.977       .  S
C60          O70   1.256       .  A
C60        C1065   1.501       .  S
O61       Ni1165   1.966   1_554  S
O61          C67   1.277       .  A
O62       Ni1147   1.900       .  S
O62          C67   1.251   1_556  A
C63         C908   1.494       .  S
O64       Ni1147   1.977   1_554  S
O64          C66   1.288   1_454  A
O65         Ni76   2.019   1_655  S
C66        O1160   1.277       .  A
C66         C967   1.540   1_556  S
C67        C1051   1.469       .  S
H68          O69   0.967   1_655  S
O69         Ni77   1.887       .  S
O69         Ni71   1.864       .  S
O69         Ni76   1.869       .  S
O70         Ni71   1.896       .  S
Ni71         O75   1.877       .  S
Ni71         O73   1.852   1_455  S
O72         Ni77   1.956   1_655  S
O72        C1154   1.277       .  A
C74          O75   1.255       .  A
C74         C922   1.421       .  S
Ni77       O1149   1.965       .  S
O79         Ni85   1.923       .  S
O79         C100   1.270       .  A
O80        Ni103   1.880   1_455  S
O80          C89   1.269   1_455  A
O81         Ni85   1.927       .  S
O81        Ni103   1.904       .  S
O81         Ni97   1.882       .  S
O81         H104   0.961       .  S
C82          O99   1.291       .  A
C82          O91   1.286       .  A
C82        C1023   1.508       .  S
O83        Ni102   1.991   1_655  S
O83          C89   1.299       .  A
O84        Ni102   2.002   1_655  S
O84          C86   1.286       .  A
Ni85       O1176   1.911       .  S
Ni85       O1178   1.899   1_655  S
C86          O96   1.267       .  A
C86         C981   1.560       .  S
O87       Ni1191   1.935   1_554  S
O87          C93   1.265       .  A
O88       Ni1173   1.911       .  S
O88          C93   1.261       .  A
C89         C894   1.492       .  S
O90       Ni1173   1.899   1_455  S
O90          C92   1.267       .  A
O91        Ni102   1.940       .  S
C92        O1186   1.299       .  A
C92        C1034   1.521       .  S
C93         C995   1.479       .  S
H94          O95   0.966       .  S
O95        Ni103   1.891   1_455  S
O95         Ni97   1.879   1_455  S
O95        Ni102   1.902       .  S
O96         Ni97   1.935       .  S
Ni97        O101   1.859       .  S
Ni97         O99   1.953   1_655  S
O98        Ni103   2.024   1_455  S
O98        C1180   1.299       .  A
C100        O101   1.252       .  A
C100        C925   1.416       .  S
Ni103      O1175   1.935       .  S
O105       Ni111   1.897       .  S
O105        C126   1.258       .  A
O106       Ni129   1.871       .  S
O106        C115   1.269       .  A
O107       Ni111   1.876       .  S
O107       Ni129   1.844       .  S
O107       Ni123   1.908       .  S
O107        H130   0.963       .  S
C108        O125   1.254       .  A
C108        O117   1.293       .  A
C108        C824   1.494       .  S
O109       Ni128   1.988   1_554  S
O109        C115   1.295       .  A
O110      Ni1216   1.933       .  S
O110        C112   1.275       .  A
Ni111       O114   1.888       .  S
Ni111       O116   1.885       .  S
C112       O1210   1.294       .  A
C112        C852   1.516       .  S
O113       Ni129   1.972       .  S
O113        C119   1.297       .  A
O114        C119   1.280       .  A
C115        C939   1.482       .  S
O116        C118   1.249       .  A
O117      Ni1216   2.019       .  S
C118        O124   1.272       .  A
C118        C838   1.488       .  S
C119        C869   1.484       .  S
H120        O121   0.966       .  S
O121       Ni129   1.922       .  S
O121       Ni123   1.873       .  S
O121       Ni128   1.893   1_554  S
O122       Ni123   2.002   1_556  S
O122       C1200   1.294       .  A
Ni123       O127   1.900       .  S
Ni123      O1213   1.873   1_554  S
O124       Ni129   1.977       .  S
O125      Ni1211   1.874       .  S
C126        O127   1.261       .  A
C126        C883   1.459       .  S
Ni128      O1198   1.933       .  S
Ni128      O1205   2.019       .  S
O131       Ni137   1.906       .  S
O131        C152   1.260       .  A
O132       Ni155   1.863       .  S
O132        C141   1.269       .  A
O133       Ni137   1.880       .  S
O133       Ni155   1.859       .  S
O133       Ni149   1.896       .  S
O133        H156   0.964       .  S
C134        O143   1.288       .  A
C134       O1239   1.257       .  A
C134        C768   1.473       .  S
O135       Ni154   1.974       .  S
O135        C141   1.292       .  A
O136       Ni154   1.933       .  S
O136        C138   1.279       .  A
Ni137       O140   1.902       .  S
Ni137       O142   1.897       .  S
C138        O148   1.290       .  A
C138       C1884   1.530   1_554  S
O139       Ni155   1.956       .  S
O139        C145   1.288       .  A
O140        C145   1.281       .  A
C141       C1009   1.468       .  S
O142        C144   1.256       .  A
O143      Ni1242   1.992       .  S
C144        O150   1.273       .  A
C144        C785   1.502       .  S
C145        C813   1.474       .  S
H146        O147   0.965       .  S
O147       Ni155   1.907       .  S
O147       Ni149   1.863       .  S
O147       Ni154   1.887       .  S
O148       Ni149   1.996       .  S
Ni149       O153   1.879       .  S
Ni149       O151   1.869       .  S
O150       Ni155   1.975       .  S
O151       C1222   1.257   1_554  A
C152        O153   1.269       .  A
C152        C880   1.446       .  S
Ni154      O1231   1.992   1_554  S
O157       Ni163   2.002       .  S
O157        C178   1.298       .  A
O158       Ni181   1.882       .  S
O158        C167   1.252       .  A
O159       Ni163   1.902       .  S
O159       Ni181   1.862       .  S
O159       Ni175   1.931       .  S
O159        H182   0.966       .  S
C160        O177   1.291       .  A
C160        O169   1.274       .  A
C160        C841   1.490       .  S
O161       Ni180   1.887       .  S
O161        C167   1.265       .  A
O162       Ni180   1.879       .  S
O162        C164   1.260       .  A
Ni163       O166   2.036       .  S
Ni163       O168   1.923       .  S
C164        O174   1.269       .  A
C164        C810   1.469       .  S
O165       Ni181   1.878       .  S
O165        C171   1.255       .  A
O166        C171   1.295       .  A
C167        C754   1.433       .  S
O168        C170   1.277       .  A
O169       Ni180   1.901       .  S
C170        O176   1.288       .  A
C170        C827   1.517       .  S
C171        C799   1.521       .  S
H172        O173   0.963       .  S
O173       Ni181   1.929       .  S
O173       Ni175   1.838       .  S
O173       Ni180   1.904       .  S
O174       Ni175   1.943       .  S
Ni175       O179   1.835       .  S
Ni175       O177   1.975       .  S
O176       Ni181   1.979       .  S
C178        O179   1.262       .  A
C178        C743   1.498       .  S
O183       Ni189   1.888       .  S
O183        C204   1.266       .  A
O184       Ni207   1.859       .  S
O184        C193   1.274       .  A
O185       Ni189   1.870       .  S
O185       Ni207   1.865       .  S
O185       Ni201   1.879       .  S
O185        H208   0.966       .  S
C186        O203   1.277       .  A
C186        O195   1.279       .  A
C186        C771   1.488       .  S
O187       Ni206   1.962       .  S
O187        C193   1.297       .  A
O188       Ni206   2.018       .  S
O188        C190   1.281       .  A
Ni189       O192   1.888       .  S
Ni189       O194   1.880       .  S
C190        O200   1.244       .  A
C190        C855   1.534       .  S
O191       Ni207   1.932       .  S
O191        C197   1.279       .  A
O192        C197   1.274       .  A
C193        C726   1.460       .  S
O194        C196   1.260       .  A
O195       Ni206   1.936       .  S
C196        O202   1.288       .  A
C196        C782   1.497       .  S
C197        C866   1.467       .  S
H198        O199   0.962       .  S
O199       Ni207   1.897       .  S
O199       Ni201   1.846       .  S
O199       Ni206   1.911       .  S
O200       Ni201   1.886       .  S
Ni201       O205   1.833       .  S
Ni201       O203   1.915       .  S
O202       Ni207   1.990       .  S
C204        O205   1.241       .  A
C204        C757   1.396       .  S
O209       Ni215   1.998       .  S
O209        C230   1.297       .  A
O210       Ni233   1.884       .  S
O210        C219   1.270       .  A
O211       Ni215   1.889       .  S
O211       Ni233   1.869       .  S
O211       Ni227   1.940       .  S
O211        H234   0.966       .  S
C212        O229   1.295       .  A
C212        O221   1.278       .  A
C212        C698   1.481       .  S
O213       Ni232   1.915       .  S
O213        C219   1.265       .  A
O214       Ni232   1.883       .  S
O214        C216   1.255       .  A
Ni215       O220   1.905       .  S
Ni215      O1306   2.026       .  S
C216        O226   1.262       .  A
C216        C673   1.471       .  S
O217      Ni1321   1.880   1_554  S
O217        C223   1.255       .  A
O218      Ni1303   2.026       .  S
O218        C223   1.293       .  A
C219        C712   1.443       .  S
O220       C1310   1.275       .  A
O221       Ni232   1.899       .  S
C222       O1308   1.275       .  A
C222       O1316   1.296       .  A
C222        C684   1.515   1_556  S
C223        C656   1.519       .  S
H224        O225   0.965       .  S
O225       Ni233   1.895       .  S
O225       Ni227   1.845       .  S
O225       Ni232   1.862       .  S
O226       Ni227   1.940       .  S
Ni227       O231   1.852       .  S
Ni227       O229   1.973       .  S
O228       Ni233   1.992       .  S
O228       C1310   1.296       .  A
C230        O231   1.262       .  A
C230        C645   1.478       .  S
Ni233      O1305   1.880       .  S
O235       Ni241   1.874       .  S
O235        C256   1.262       .  A
O236       Ni259   1.850       .  S
O236        C245   1.268       .  A
O237       Ni241   1.874       .  S
O237       Ni259   1.879       .  S
O237       Ni253   1.890       .  S
O237        H260   0.961       .  S
C238        O255   1.265   1_554  A
C238        O247   1.298       .  A
C238        C614   1.495       .  S
O239       Ni258   2.010       .  S
O239        C245   1.302       .  A
O240       Ni258   1.964       .  S
O240       C1330   1.284       .  A
Ni241       O244   1.881       .  S
Ni241       O246   1.929       .  S
C242       O1328   1.284       .  A
C242       O1340   1.268       .  A
C242        C586   1.494       .  S
O243       Ni259   1.961       .  S
O243        C249   1.282       .  A
O244        C249   1.266       .  A
C245        C572   1.507       .  S
O246        C248   1.269       .  A
O247      Ni1346   2.008   1_554  S
C248        O254   1.264       .  A
C248        C631   1.482       .  S
C249        C603   1.474       .  S
H250        O251   0.967       .  S
O251       Ni259   1.897       .  S
O251       Ni253   1.869       .  S
O251       Ni258   1.873       .  S
O252       Ni253   1.919       .  S
O252       C1330   1.267       .  A
Ni253       O257   1.883       .  S
Ni253      O1343   1.860       .  S
O254       Ni259   1.925       .  S
O255      Ni1341   1.861       .  S
C256        O257   1.257       .  A
C256        C715   1.435       .  S
Ni258      O1335   2.008       .  S
O261       Ni267   1.902       .  S
O261        C282   1.267       .  A
O262       Ni285   1.854       .  S
O262        C271   1.266       .  A
O263       Ni267   1.886       .  S
O263       Ni285   1.872       .  S
O263       Ni279   1.922       .  S
O263        H286   0.963       .  S
C264        O281   1.256       .  A
C264        O273   1.291       .  A
C264        C617   1.484       .  S
O265       Ni284   1.983       .  S
O265        C271   1.294       .  A
O266       Ni284   1.935       .  S
O266        C268   1.277       .  A
Ni267       O270   1.906       .  S
Ni267       O272   1.906       .  S
C268        O278   1.288       .  A
C268        C659   1.523       .  S
O269       Ni285   1.944       .  S
O269        C275   1.281       .  A
O270        C275   1.277       .  A
C271        C729   1.469       .  S
O272        C274   1.261       .  A
O273       Ni284   1.999       .  S
C274        O280   1.269       .  A
C274        C628   1.478       .  S
C275        C670   1.474       .  S
H276        O277   0.967       .  S
O277       Ni285   1.898       .  S
O277       Ni279   1.855       .  S
O277       Ni284   1.886       .  S
O278       Ni279   1.984       .  S
Ni279       O283   1.861       .  S
Ni279       O281   1.873       .  S
O280       Ni285   1.944       .  S
C282        O283   1.256       .  A
C282        C558   1.444       .  S
O287       Ni293   1.910       .  S
O287        C308   1.265       .  A
O288       Ni311   1.857       .  S
O288        C297   1.266       .  A
O289       Ni293   1.850       .  S
O289       Ni311   1.843       .  S
O289       Ni305   1.901       .  S
O289        H312   0.958       .  S
C290        O307   1.250       .  A
C290        O299   1.293       .  A
C290        C687   1.488       .  S
O291       Ni310   1.988       .  S
O291        C297   1.296       .  A
O292       Ni310   1.934       .  S
O292        C294   1.276       .  A
Ni293       O296   1.920       .  S
Ni293       O298   1.884       .  S
C294        O304   1.286       .  A
C294        C589   1.506       .  S
O295       Ni311   1.943       .  S
O295        C301   1.288       .  A
O296        C301   1.288       .  A
C297        C740   1.495       .  S
O298        C300   1.254       .  A
O299       Ni310   2.021       .  S
C300        O306   1.274       .  A
C300        C701   1.478       .  S
C301        C600   1.490       .  S
H302        O303   0.967       .  S
O303       Ni311   1.914       .  S
O303       Ni305   1.863       .  S
O303       Ni310   1.896       .  S
O304       Ni305   1.981       .  S
Ni305       O309   1.884       .  S
Ni305       O307   1.854       .  S
O306       Ni311   1.964       .  S
C308        O309   1.256       .  A
C308        C561   1.447       .  S
O313       Ni319   1.916       .  S
O313        C334   1.279       .  A
O314       Ni337   1.894       .  S
O314        C323   1.272       .  A
O315       Ni319   1.805       .  S
O315       Ni337   1.838       .  S
O315       Ni331   1.833       .  S
O315        H338   0.966       .  S
C316        O333   1.259       .  A
C316        O325   1.295       .  A
C316        C530   1.502       .  S
O317       Ni336   1.972       .  S
O317        C323   1.291       .  A
O318       Ni336   1.966       .  S
O318        C320   1.277       .  A
Ni319       O322   1.859       .  S
Ni319       O324   1.877       .  S
C320        O330   1.270       .  A
C320        C488   1.518       .  S
O321       Ni337   1.968       .  S
O321        C327   1.304       .  A
O322        C327   1.279       .  A
C323        C575   1.500       .  S
O324        C326   1.253       .  A
O325       Ni336   2.003       .  S
C326        O332   1.295       .  A
C326        C516   1.507       .  S
C327        C502   1.472       .  S
H328        O329   0.966       .  S
O329       Ni337   1.907       .  S
O329       Ni331   1.903       .  S
O329       Ni336   1.888       .  S
O330       Ni331   1.938       .  S
Ni331       O335   1.898       .  S
Ni331       O333   1.842       .  S
O332       Ni337   2.025       .  S
C334        O335   1.267       .  A
C334        C547   1.457       .  S
O339       Ni345   1.899       .  S
O339        C360   1.267       .  A
O340       Ni363   1.853       .  S
O340        C349   1.262       .  A
O341       Ni345   1.876       .  S
O341       Ni363   1.880       .  S
O341       Ni357   1.919       .  S
O341        H364   0.965       .  S
C342        O359   1.287       .  A
C342        O351   1.295       .  A
C342        C460   1.498       .  S
O343       Ni362   2.008       .  S
O343        C349   1.303       .  A
O344       Ni362   1.987       .  S
O344        C346   1.284       .  A
Ni345       O348   1.894       .  S
Ni345       O350   1.914       .  S
C346        O356   1.252       .  A
C346        C432   1.516       .  S
O347       Ni363   1.923       .  S
O347        C353   1.252       .  A
O348        C353   1.254       .  A
C349        C642   1.485       .  S
O350        C352   1.282       .  A
O351       Ni362   1.965       .  S
C352        O358   1.305       .  A
C352        C474   1.504       .  S
C353        C449   1.458       .  S
H354        O355   0.966       .  S
O355       Ni363   1.845       .  S
O355       Ni357   1.849       .  S
O355       Ni362   1.876       .  S
O356       Ni357   1.887       .  S
Ni357       O361   1.870       .  S
Ni357       O359   1.904       .  S
O358       Ni363   2.018       .  S
C360        O361   1.271       .  A
C360        C544   1.452       .  S
O365       Ni371   1.944   1_455  S
O365        C386   1.274       .  A
O366       Ni389   1.901       .  S
O366        C375   1.278   1_455  A
O367       Ni371   1.869       .  S
O367       Ni389   1.864   1_655  S
O367       Ni383   1.853   1_655  S
O367        H390   0.961       .  S
C368        O385   1.256       .  A
C368        O377   1.296       .  A
C368        C533   1.487       .  S
O369       Ni388   1.985   1_655  S
O369        C375   1.296       .  A
O370       Ni388   1.981   1_655  S
O370        C372   1.282       .  A
Ni371       O376   1.894   1_654  S
Ni371      O1462   1.914       .  S
C372        O382   1.267       .  A
C372        C435   1.525       .  S
O373      Ni1477   1.942   1_655  S
O373        C379   1.288       .  A
O374      Ni1459   1.914       .  S
O374        C379   1.287       .  A
C375        C897   1.498       .  S
O376       C1466   1.262       .  A
O377       Ni388   2.001       .  S
C378       O1464   1.262       .  A
C378       O1472   1.286       .  A
C378        C519   1.522       .  S
C379        C446   1.481       .  S
H380        O381   0.967       .  S
O381       Ni389   1.901       .  S
O381       Ni383   1.877       .  S
O381       Ni388   1.892       .  S
O382       Ni383   1.935   1_655  S
Ni383       O387   1.840       .  S
Ni383       O385   1.841       .  S
O384       Ni389   1.998       .  S
O384       C1466   1.286   1_554  A
C386        O387   1.247       .  A
C386        C421   1.470       .  S
Ni389      O1461   1.942   1_454  S
O391       Ni397   1.910   1_554  S
O391        C412   1.267       .  A
O392       Ni415   1.849       .  S
O392        C401   1.258       .  A
O393       Ni397   1.878   1_554  S
O393       Ni415   1.870       .  S
O393       Ni409   1.932       .  S
O393        H416   0.965       .  S
C394        O411   1.280   1_655  A
C394        O403   1.296   1_655  A
C394        C463   1.476       .  S
O395       Ni414   2.018       .  S
O395        C401   1.302       .  A
O396       Ni414   1.996       .  S
O396        C398   1.287       .  A
Ni397       O402   1.918       .  S
Ni397      O1488   1.918       .  S
C398        O408   1.255       .  A
C398        C491   1.520       .  S
O399       Ni415   1.883   1_556  S
O399       C1493   1.246       .  A
O400      Ni1485   1.917       .  S
O400        C405   1.269       .  A
C401        C911   1.488       .  S
O402       C1492   1.281       .  A
O403       Ni414   1.978       .  S
C404       O1490   1.281       .  A
C404       O1498   1.300       .  A
C404        C477   1.506   1_455  S
C405       O1487   1.246       .  A
C405        C505   1.456       .  S
H406        O407   0.966   1_655  S
O407       Ni415   1.846       .  S
O407       Ni409   1.856       .  S
O407       Ni414   1.883       .  S
O408       Ni409   1.900       .  S
Ni409       O413   1.877       .  S
Ni409       O411   1.890       .  S
O410       Ni415   2.004   1_556  S
O410       C1492   1.300       .  A
C412        O413   1.263       .  A
C412        C418   1.456       .  S
C417        C418   1.405       .  A
C417        C422   1.398       .  A
C417        H424   1.082       .  S
C418        C419   1.423       .  A
C419        C420   1.390       .  A
C419        N426   1.428       .  S
C420        C421   1.387       .  A
C420        H425   1.082       .  S
C421        C422   1.404       .  A
C422        N423   1.438       .  S
N423        O427   1.263       .  A
N423        O428   1.263       .  A
N426        O429   1.262       .  A
N426        O430   1.259       .  A
C431        C432   1.401       .  A
C431        C436   1.419       .  A
C431        H438   1.084       .  S
C432        C433   1.430       .  A
C433        C434   1.427       .  A
C433        N440   1.439       .  S
C434        C435   1.405       .  A
C434        H439   1.083       .  S
C435        C436   1.422       .  A
C436        N437   1.425       .  S
N437        O441   1.263       .  A
N437        O442   1.263       .  A
N440        O443   1.262       .  A
N440        O444   1.263       .  A
C445        C446   1.410       .  A
C445        C450   1.399       .  A
C445        H452   1.075       .  S
C446        C447   1.415       .  A
C447        C448   1.410       .  A
C447        N454   1.438       .  S
C448        C449   1.407       .  A
C448        H453   1.084       .  S
C449        C450   1.398       .  A
C450        N451   1.441       .  S
N451        O455   1.263       .  A
N451        O456   1.263       .  A
N454        O457   1.262       .  A
N454        O458   1.262       .  A
C459        C460   1.411       .  A
C459        C464   1.407       .  A
C459        H466   1.082       .  S
C460        C461   1.418       .  A
C461        C462   1.403       .  A
C461        N468   1.433       .  S
C462        C463   1.402       .  A
C462        H467   1.084       .  S
C463        C464   1.416       .  A
C464        N465   1.444   1_655  S
N465        O469   1.262       .  A
N465        O470   1.260       .  A
N468        O471   1.263       .  A
N468        O472   1.262       .  A
C473        C474   1.405       .  A
C473        C478   1.415       .  A
C473        H480   1.084       .  S
C474        C475   1.420       .  A
C475        C476   1.420       .  A
C475        N482   1.437       .  S
C476        C477   1.407       .  A
C476        H481   1.083   1_655  S
C477        C478   1.417       .  A
C478        N479   1.433       .  S
N479        O483   1.263       .  A
N479       O1572   1.261       .  A
N482        O485   1.261       .  A
N482        O486   1.263       .  A
O484       N1567   1.261       .  A
C487        C488   1.413       .  A
C487        C492   1.427       .  A
C487        H494   1.082       .  S
C488        C489   1.421       .  A
C489        C490   1.424       .  A
C489        N496   1.445       .  S
C490        C491   1.417       .  A
C490        H495   1.083       .  S
C491        C492   1.415       .  A
C492        N493   1.437       .  S
N493        O497   1.259       .  A
N493        O498   1.262       .  A
N496        O499   1.262       .  A
N496        O500   1.263       .  A
C501        C502   1.408       .  A
C501        C506   1.402       .  A
C501        H508   1.083       .  S
C502        C503   1.432       .  A
C503        C504   1.395       .  A
C503        N510   1.437       .  S
C504        C505   1.386       .  A
C504        H509   1.084       .  S
C505        C506   1.405       .  A
C506        N507   1.441       .  S
N507        O511   1.263       .  A
N507        O512   1.263       .  A
N510        O513   1.261       .  A
N510        O514   1.263       .  A
C515        C516   1.416       .  A
C515        C520   1.432       .  A
C515        H522   1.083       .  S
C516        C517   1.406       .  A
C517        C518   1.406       .  A
C517        N524   1.432       .  S
C518        C519   1.412       .  A
C518        H523   1.078       .  S
C519        C520   1.425       .  A
C520        N521   1.441       .  S
N521        O525   1.263       .  A
N521        O526   1.262       .  A
N524        O527   1.261       .  A
N524        O528   1.262       .  A
C529        C530   1.419       .  A
C529        C534   1.409       .  A
C529        H536   1.084       .  S
C530        C531   1.406       .  A
C531        C532   1.414       .  A
C531        N538   1.438       .  S
C532        C533   1.421       .  A
C532        H537   1.084       .  S
C533        C534   1.413       .  A
C534        N535   1.445       .  S
N535        O539   1.263       .  A
N535        O540   1.261       .  A
N538        O541   1.262       .  A
N538        O542   1.262       .  A
C543        C544   1.403   1_455  A
C543        C548   1.406       .  A
C543        H550   1.083   1_455  S
C544        C545   1.392   1_655  A
C545        C546   1.391       .  A
C545        N552   1.434       .  S
C546        C547   1.405       .  A
C546        H551   1.081       .  S
C547        C548   1.418       .  A
C548        N549   1.437       .  S
N549        O553   1.262       .  A
N549        O554   1.263       .  A
N552        O555   1.263       .  A
N552        O556   1.262       .  A
C557        C558   1.407       .  A
C557        C562   1.393       .  A
C557        H564   1.085       .  S
C558        C559   1.405       .  A
C559        C560   1.390       .  A
C559        N566   1.436       .  S
C560        C561   1.400       .  A
C560        H565   1.084       .  S
C561        C562   1.408       .  A
C562        N563   1.440       .  S
N563        O567   1.262       .  A
N563        O568   1.263       .  A
N566        O569   1.263       .  A
N566        O570   1.261       .  A
C571        C572   1.415       .  A
C571        C576   1.397       .  A
C571        H578   1.084       .  S
C572        C573   1.416       .  A
C573        C574   1.419       .  A
C573        N580   1.436       .  S
C574        C575   1.416       .  A
C574        H579   1.083       .  S
C575        C576   1.410       .  A
C576        N577   1.435       .  S
N577        O581   1.263       .  A
N577        O582   1.263       .  A
N580        O583   1.262       .  A
N580        O584   1.263       .  A
C585        C586   1.402       .  A
C585        C590   1.412       .  A
C585        H592   1.084       .  S
C586        C587   1.420       .  A
C587        C588   1.417       .  A
C587        N594   1.438   1_554  S
C588        C589   1.404       .  A
C588        H593   1.082       .  S
C589        C590   1.417       .  A
C590        N591   1.430       .  S
N591        O595   1.262       .  A
N591        O596   1.262       .  A
N594        O598   1.263       .  A
N594       O1685   1.263       .  A
O597       N1682   1.263       .  A
C599        C600   1.408       .  A
C599        C604   1.407       .  A
C599        H606   1.081       .  S
C600        C601   1.419       .  A
C601        C602   1.406       .  A
C601        N608   1.432       .  S
C602        C603   1.405       .  A
C602        H607   1.084       .  S
C603        C604   1.408       .  A
C604        N605   1.441       .  S
N605        O609   1.263       .  A
N605        O610   1.263       .  A
N608        O611   1.262       .  A
N608        O612   1.262       .  A
C613        C614   1.409       .  A
C613        C618   1.399       .  A
C613        H620   1.083       .  S
C614        C615   1.417       .  A
C615        C616   1.419       .  A
C615        N622   1.439       .  S
C616        C617   1.412       .  A
C616        H621   1.083       .  S
C617        C618   1.411       .  A
C618        N619   1.438       .  S
N619        O623   1.261       .  A
N619        O624   1.263       .  A
N622        O625   1.262       .  A
N622        O626   1.263       .  A
C627        C628   1.407       .  A
C627        C632   1.408       .  A
C627        H634   1.084       .  S
C628        C629   1.412       .  A
C629        C630   1.410       .  A
C629        N636   1.442       .  S
C630        C631   1.406       .  A
C630        H635   1.084       .  S
C631        C632   1.407       .  A
C632        N633   1.437       .  S
N633        O637   1.263       .  A
N633        O638   1.262       .  A
N636        O639   1.262       .  A
N636        O640   1.263       .  A
C641        C642   1.401       .  A
C641        C646   1.410       .  A
C641        H648   1.084       .  S
C642        C643   1.422       .  A
C643        C644   1.411       .  A
C643        N650   1.442       .  S
C644        C645   1.401       .  A
C644        H649   1.084       .  S
C645        C646   1.421       .  A
C646        N647   1.443       .  S
N647        O651   1.263       .  A
N647        O652   1.263       .  A
N650        O653   1.263       .  A
N650        O654   1.263       .  A
C655        C656   1.414       .  A
C655        C660   1.414       .  A
C655        H662   1.084       .  S
C656        C657   1.414       .  A
C657        C658   1.424       .  A
C657        N664   1.429       .  S
C658        C659   1.414       .  A
C658        H663   1.077       .  S
C659        C660   1.417       .  A
C660        N661   1.432       .  S
N661        O665   1.262       .  A
N661        O666   1.262       .  A
N664        O667   1.262       .  A
N664        O668   1.262       .  A
C669        C670   1.401       .  A
C669        C674   1.412       .  A
C669        H676   1.083       .  S
C670        C671   1.419       .  A
C671        C672   1.407       .  A
C671        N678   1.442       .  S
C672        C673   1.400       .  A
C672        H677   1.083       .  S
C673        C674   1.415       .  A
C674        N675   1.440       .  S
N675        O679   1.263       .  A
N675        O680   1.263       .  A
N678        O681   1.263       .  A
N678        O682   1.263       .  A
C683        C684   1.409       .  A
C683        C688   1.419       .  A
C683        H690   1.083   1_554  S
C684        C685   1.426       .  A
C685        C686   1.408       .  A
C685        N692   1.433       .  S
C686        C687   1.402       .  A
C686        H691   1.084       .  S
C687        C688   1.419       .  A
C688        N689   1.439       .  S
N689        O693   1.262       .  A
N689        O694   1.263       .  A
N692        O695   1.263   1_554  A
N692        O696   1.262       .  A
C697        C698   1.407       .  A
C697        C702   1.411       .  A
C697        H704   1.084       .  S
C698        C699   1.413       .  A
C699        C700   1.411       .  A
C699        N706   1.442       .  S
C700        C701   1.407       .  A
C700        H705   1.084       .  S
C701        C702   1.412       .  A
C702        N703   1.442       .  S
N703        O707   1.263       .  A
N703        O708   1.263       .  A
N706        O709   1.262       .  A
N706        O710   1.263       .  A
C711        C712   1.396       .  A
C711        C716   1.382       .  A
C711        H718   1.082       .  S
C712        C713   1.406       .  A
C713        C714   1.400       .  A
C713        N720   1.438       .  S
C714        C715   1.402       .  A
C714        H719   1.081       .  S
C715        C716   1.403       .  A
C716        N717   1.443       .  S
N717        O721   1.263       .  A
N717        O722   1.259       .  A
N720        O723   1.262       .  A
N720        O724   1.263       .  A
C725        C726   1.397       .  A
C725        C730   1.399   1_565  A
C725        H732   1.085       .  S
C726        C727   1.416       .  A
C727        C728   1.407   1_565  A
C727        N734   1.441       .  S
C728        C729   1.400       .  A
C728        H733   1.083       .  S
C729        C730   1.417       .  A
C730        N731   1.442       .  S
N731        O735   1.263       .  A
N731        O736   1.263       .  A
N734        O737   1.263       .  A
N734        O738   1.263       .  A
C739        C740   1.421       .  A
C739        C744   1.409       .  A
C739        H746   1.083       .  S
C740        C741   1.405       .  A
C741        C742   1.397       .  A
C741        N748   1.433       .  S
C742        C743   1.419       .  A
C742        H747   1.084       .  S
C743        C744   1.408       .  A
C744        N745   1.436       .  S
N745        O749   1.262       .  A
N745        O750   1.262       .  A
N748        O751   1.262       .  A
N748        O752   1.262       .  A
C753        C754   1.402       .  A
C753        C758   1.362       .  A
C753        H760   1.050       .  S
C754        C755   1.404       .  A
C755        C756   1.395       .  A
C755        N762   1.442       .  S
C756        C757   1.404       .  A
C756        H761   1.083       .  S
C757        C758   1.384       .  A
C758        N759   1.445       .  S
N759        O763   1.262       .  A
N759        O764   1.262       .  A
N762        O765   1.262       .  A
N762        O766   1.263       .  A
C767        C768   1.401       .  A
C767        C772   1.393       .  A
C767        H774   1.085       .  S
C768        C769   1.418       .  A
C769        C770   1.419       .  A
C769        N776   1.442       .  S
C770        C771   1.408       .  A
C770        H775   1.083       .  S
C771        C772   1.407       .  A
C772        N773   1.429       .  S
N773        O777   1.260       .  A
N773        O778   1.263       .  A
N776        O780   1.263       .  A
N776       O1867   1.263       .  A
O779       N1864   1.263       .  A
C781        C782   1.405       .  A
C781        C786   1.420       .  A
C781        H788   1.083       .  S
C782        C783   1.421       .  A
C783        C784   1.411       .  A
C783        N790   1.437       .  S
C784        C785   1.401       .  A
C784        H789   1.084       .  S
C785        C786   1.423       .  A
C786        N787   1.438       .  S
N787        O791   1.263       .  A
N787        O792   1.261       .  A
N790        O793   1.260       .  A
N790        O794   1.262       .  A
C795        C796   1.409       .  A
C795        C800   1.417       .  A
C795        H802   1.083       .  S
C796       C1226   1.530       .  S
C796        C797   1.426       .  A
C797        C798   1.425       .  A
C797       N1892   1.430       .  S
C798        C799   1.408       .  A
C798        H803   1.083       .  S
C799        C800   1.425       .  A
C800        N801   1.440       .  S
N801        O805   1.263       .  A
N801        O806   1.263       .  A
N804       C1885   1.430   1_554  S
N804        O807   1.260       .  A
N804        O808   1.262       .  A
C809        C810   1.399       .  A
C809        C814   1.407       .  A
C809        H816   1.083       .  S
C810        C811   1.416       .  A
C811        C812   1.410       .  A
C811        N818   1.441       .  S
C812        C813   1.399       .  A
C812        H817   1.083       .  S
C813        C814   1.419       .  A
C814        N815   1.443       .  S
N815        O819   1.263       .  A
N815        O820   1.263       .  A
N818        O821   1.262       .  A
N818        O822   1.263       .  A
C823        C824   1.404       .  A
C823        C828   1.410       .  A
C823        H830   1.083       .  S
C824        C825   1.417       .  A
C825        C826   1.422       .  A
C825        N832   1.442       .  S
C826        C827   1.415       .  A
C826        H831   1.082       .  S
C827        C828   1.418       .  A
C828        N829   1.432       .  S
N829        O833   1.261       .  A
N829        O834   1.259       .  A
N832        O835   1.263       .  A
N832        O836   1.263       .  A
C837        C838   1.409       .  A
C837        C842   1.417       .  A
C837        H844   1.083       .  S
C838        C839   1.413       .  A
C839        C840   1.412       .  A
C839        N846   1.443       .  S
C840        C841   1.407       .  A
C840        H845   1.082       .  S
C841        C842   1.414       .  A
C842        N843   1.442       .  S
N843        O847   1.263       .  A
N843        O848   1.262       .  A
N846        O849   1.263       .  A
N846        O850   1.263       .  A
C851        C852   1.417       .  A
C851        C856   1.435       .  A
C851        H858   1.080       .  S
C852        C853   1.404       .  A
C853        C854   1.406       .  A
C853        N860   1.434       .  S
C854        C855   1.420       .  A
C854        H859   1.080       .  S
C855        C856   1.423       .  A
C856        N857   1.438       .  S
N857        O861   1.262       .  A
N857        O862   1.262       .  A
N860        O863   1.261       .  A
N860        O864   1.262       .  A
C865        C866   1.393       .  A
C865        C870   1.406       .  A
C865        H872   1.084       .  S
C866        C867   1.418       .  A
C867        C868   1.413       .  A
C867        N874   1.441       .  S
C868        C869   1.401       .  A
C868        H873   1.083       .  S
C869        C870   1.429       .  A
C870        N871   1.443       .  S
N871        O875   1.263       .  A
N871        O876   1.259       .  A
N874        O877   1.263       .  A
N874        O878   1.262       .  A
C879        C880   1.394       .  A
C879        C884   1.389       .  A
C879        H886   1.085       .  S
C880        C881   1.404       .  A
C881        C882   1.388       .  A
C881        N888   1.441       .  S
C882        C883   1.407       .  A
C882        H887   1.085       .  S
C883        C884   1.415       .  A
C884       N1973   1.426   1_554  S
N885       C1972   1.426       .  S
N885        O889   1.259       .  A
N885        O890   1.259       .  A
N888        O891   1.263       .  A
N888        O892   1.262       .  A
C893        C894   1.409   1_545  A
C893       C1986   1.418       .  A
C893        H900   1.083   1_545  S
C894        C895   1.416   1_665  A
C895       C1984   1.413       .  A
C895        N902   1.442   1_545  S
C896        C897   1.406   1_456  A
C896       C1983   1.412       .  A
C896        H901   1.084       .  S
C897        C898   1.419       .  A
C898       C1981   1.418   1_554  A
C898        N899   1.444       .  S
N899        O903   1.263       .  A
N899        O904   1.263       .  A
N902        O905   1.262       .  A
N902        O906   1.263   1_565  A
C907        C908   1.404       .  A
C907       C2000   1.417       .  A
C907        H914   1.083       .  S
C908        C909   1.421   1_455  A
C909       C1998   1.412       .  A
C909        N916   1.442       .  S
C910        C911   1.404   1_655  A
C910       C1997   1.411   1_554  A
C910        H915   1.084       .  S
C911        C912   1.422       .  A
C912       C1995   1.417   1_554  A
C912        N913   1.442       .  S
N913        O917   1.263   1_554  A
N913        O918   1.262       .  A
N916        O919   1.263       .  A
N916        O920   1.263       .  A
C921        C922   1.388       .  A
C921        C926   1.375       .  A
C921        H928   1.086       .  S
C922        C923   1.404   1_455  A
C923        C924   1.386       .  A
C923        N930   1.424       .  S
C924        C925   1.394       .  A
C924        H929   1.085       .  S
C925        C926   1.408   1_655  A
C926        N927   1.424       .  S
N927        O931   1.261       .  A
N927        O932   1.260       .  A
N930        O933   1.258       .  A
N930        O934   1.260       .  A
C935        C936   1.399       .  A
C935        C940   1.407       .  A
C935        H942   1.084       .  S
C936        C937   1.417       .  A
C937        C938   1.409       .  A
C937        N944   1.438       .  S
C938        C939   1.400       .  A
C938        H943   1.084       .  S
C939        C940   1.422       .  A
C940        N941   1.441       .  S
N941        O945   1.263       .  A
N941        O946   1.263       .  A
N944        O947   1.263       .  A
N944        O948   1.263       .  A
C949        C950   1.400       .  A
C949        C954   1.414       .  A
C949        H956   1.084       .  S
C950        C951   1.415       .  A
C951        C952   1.409       .  A
C951        N958   1.436   1_655  S
C952        C953   1.400       .  A
C952        H957   1.071       .  S
C953        C954   1.431       .  A
C954        N955   1.434       .  S
N955        O959   1.263       .  A
N955        O960   1.263       .  A
N958        O961   1.260       .  A
N958        O962   1.261       .  A
C963        C964   1.410       .  A
C963        C968   1.436       .  A
C963        H970   1.083       .  S
C964        C965   1.417       .  A
C965        C966   1.411       .  A
C965        N972   1.431       .  S
C966        C967   1.400       .  A
C966        H971   1.073       .  S
C967        C968   1.434       .  A
C968        N969   1.438   1_554  S
N969        O973   1.263       .  A
N969       O2062   1.261       .  A
N972        O975   1.262       .  A
N972        O976   1.263       .  A
O974       N2057   1.261       .  A
C977        C978   1.424       .  A
C977        C982   1.437       .  A
C977        H984   1.083       .  S
C978        C979   1.424       .  A
C979        C980   1.433       .  A
C979        N986   1.435       .  S
C980        C981   1.424       .  A
C980        H985   1.083       .  S
C981        C982   1.426       .  A
C982        N983   1.437       .  S
N983        O987   1.263       .  A
N983        O988   1.262       .  A
N986        O989   1.263       .  A
N986        O990   1.262       .  A
C991        C992   1.404       .  A
C991        C996   1.406       .  A
C991        H998   1.079       .  S
C992        C993   1.409       .  A
C993        C994   1.410       .  A
C993       N1000   1.442   1_554  S
C994        C995   1.406       .  A
C994        H999   1.082   1_554  S
C995        C996   1.410       .  A
C996        N997   1.442       .  S
N997       O1001   1.263       .  A
N997       O1002   1.263       .  A
N1000      O1003   1.263       .  A
N1000      O1004   1.263       .  A
C1005      C1006   1.401       .  A
C1005      C1010   1.406       .  A
C1005      H1012   1.084       .  S
C1006      C1007   1.417       .  A
C1007      C1008   1.401       .  A
C1007      N1014   1.441       .  S
C1008      C1009   1.398       .  A
C1008      H1013   1.084       .  S
C1009      C1010   1.418       .  A
C1010      N1011   1.442       .  S
N1011      O1015   1.263       .  A
N1011      O1016   1.263       .  A
N1014      O1017   1.263       .  A
N1014      O1018   1.263       .  A
C1019      C1020   1.415       .  A
C1019      C1024   1.422       .  A
C1019      H1026   1.083       .  S
C1020      C1021   1.414       .  A
C1021      C1022   1.419       .  A
C1021      N1028   1.441       .  S
C1022      C1023   1.412       .  A
C1022      H1027   1.083       .  S
C1023      C1024   1.415       .  A
C1024      N1025   1.444       .  S
N1025      O1029   1.261       .  A
N1025      O1030   1.263       .  A
N1028      O1031   1.263       .  A
N1028      O1032   1.263       .  A
C1033      C1034   1.412       .  A
C1033      C1038   1.431       .  A
C1033      H1040   1.079       .  S
C1034      C1035   1.412       .  A
C1035      C1036   1.418       .  A
C1035      N1042   1.429       .  S
C1036      C1037   1.413       .  A
C1036      H1041   1.083       .  S
C1037      C1038   1.424       .  A
C1038      N1039   1.443       .  S
N1039      O1043   1.263       .  A
N1039      O1044   1.263       .  A
N1042      O1045   1.261       .  A
N1042      O1046   1.261       .  A
C1047      C1048   1.410       .  A
C1047      C1052   1.427       .  A
C1047      H1054   1.083       .  S
C1048      C1049   1.393       .  A
C1049      C1050   1.390       .  A
C1049      N1056   1.439       .  S
C1050      C1051   1.389       .  A
C1050      H1055   1.068       .  S
C1051      C1052   1.426       .  A
C1052      N1053   1.440       .  S
N1053      O1057   1.263       .  A
N1053      O1058   1.263       .  A
N1056      O1059   1.264       .  A
N1056      O1060   1.258       .  A
C1061      C1062   1.405       .  A
C1061      C1066   1.419       .  A
C1061      H1068   1.083       .  S
C1062      C1063   1.420       .  A
C1063      C1064   1.421       .  A
C1063      N1070   1.437       .  S
C1064      C1065   1.407       .  A
C1064      H1069   1.083       .  S
C1065      C1066   1.420       .  A
C1066      N1067   1.439       .  S
N1067      O1071   1.263       .  A
N1067      O1072   1.263       .  A
N1070      O1073   1.263       .  A
N1070      O1074   1.263       .  A
C1075      C1076   1.403   1_455  A
C1075      C1080   1.406       .  A
C1075      H1082   1.080       .  S
C1076      C1077   1.406       .  A
C1077      C1078   1.371   1_655  A
C1077      N1084   1.440       .  S
C1078      C1079   1.381       .  A
C1078      H1083   1.077       .  S
C1079      C1080   1.409       .  A
C1080      N1081   1.438       .  S
N1081      O1085   1.262       .  A
N1081      O1086   1.263       .  A
N1084      O1087   1.259       .  A
N1084      O1088   1.263   1_655  A
O1089     Ni1095   1.935       .  S
O1089      C1110   1.275       .  A
O1090     Ni1113   1.873       .  S
O1090      C1099   1.278       .  A
O1091     Ni1095   1.845       .  S
O1091     Ni1113   1.847       .  S
O1091     Ni1107   1.842       .  S
O1091      H1114   0.962       .  S
C1092      O1109   1.239       .  A
C1092      O1101   1.296       .  A
C1092      C2108   1.497       .  S
O1093     Ni1112   1.981       .  S
O1093      C1099   1.299       .  A
O1094     Ni1112   1.940       .  S
O1094      C1096   1.273       .  A
Ni1095     O1098   1.882       .  S
Ni1095     O1100   1.892       .  S
C1096      O1106   1.280       .  A
C1096      C2150   1.512       .  S
O1097     Ni1113   1.959       .  S
O1097      C1103   1.291       .  A
O1098      C1103   1.286       .  A
C1099      C2094   1.475       .  S
O1100      C1102   1.255       .  A
O1101     Ni1112   2.044       .  S
C1102      O1108   1.292       .  A
C1102      C2125   1.517       .  S
C1103      C2136   1.474       .  S
H1104      O1105   0.967       .  S
O1105     Ni1113   1.910       .  S
O1105     Ni1107   1.837       .  S
O1105     Ni1112   1.901       .  S
O1106     Ni1107   1.981       .  S
Ni1107     O1111   1.816       .  S
Ni1107     O1109   1.847       .  S
O1108     Ni1113   2.017       .  S
C1110      O1111   1.243       .  A
C1110      C2167   1.437       .  S
O1115     Ni1121   1.930       .  S
O1115      C1136   1.277       .  A
O1116     Ni1139   1.874       .  S
O1116      C1125   1.274       .  A
O1117     Ni1121   1.903       .  S
O1117     Ni1139   1.888       .  S
O1117     Ni1133   1.885       .  S
O1117      H1140   0.961       .  S
C1118      O1135   1.302       .  A
C1118      O1127   1.276       .  A
C1118      C2041   1.515       .  S
O1119     Ni1138   1.970       .  S
O1119      C1125   1.298       .  A
O1120     Ni1138   2.017       .  S
O1120      C1122   1.281       .  A
Ni1121     O1124   1.914       .  S
Ni1121     O1126   1.921       .  S
C1122      O1132   1.251       .  A
C1122      C2066   1.557       .  S
O1123     Ni1139   1.928       .  S
O1123      C1129   1.264       .  A
O1124      C1129   1.266       .  A
C1125      C2024   1.480       .  S
O1126      C1128   1.276       .  A
O1127     Ni1138   1.904       .  S
C1128      O1134   1.301       .  A
C1128      C2052   1.526       .  S
C1129      C2080   1.478       .  S
H1130      O1131   0.966       .  S
O1131     Ni1139   1.892       .  S
O1131     Ni1133   1.865       .  S
O1131     Ni1138   1.913       .  S
O1132     Ni1133   1.910       .  S
Ni1133     O1137   1.849       .  S
Ni1133     O1135   1.993       .  S
O1134     Ni1139   2.023       .  S
C1136      O1137   1.257       .  A
C1136      C2164   1.411       .  S
O1141     Ni1147   1.847       .  S
O1141      C1162   1.261       .  A
O1142     Ni1165   1.856       .  S
O1142      C1151   1.267       .  A
O1143     Ni1147   1.846       .  S
O1143     Ni1165   1.888       .  S
O1143     Ni1159   1.887       .  S
O1143      H1166   0.962       .  S
C1144      O1161   1.265       .  A
C1144      O1153   1.304       .  A
C1144      C2038   1.486       .  S
O1145     Ni1164   2.025       .  S
O1145      C1151   1.308       .  A
O1146     Ni1164   1.982       .  S
O1146      C1148   1.284       .  A
C1148      O1158   1.256       .  A
C1148      C2153   1.501       .  S
O1149      C1155   1.277       .  A
O1150      C1155   1.251       .  A
C1151      C1996   1.493       .  S
O1152      C1154   1.288   1_455  A
O1153     Ni1164   2.018   1_655  S
C1154      C2055   1.540       .  S
C1155      C2139   1.469       .  S
H1156      O1157   0.967   1_655  S
O1157     Ni1165   1.887       .  S
O1157     Ni1159   1.864       .  S
O1157     Ni1164   1.869       .  S
O1158     Ni1159   1.896       .  S
Ni1159     O1163   1.877       .  S
Ni1159     O1161   1.852   1_455  S
O1160     Ni1165   1.956   1_655  S
C1162      O1163   1.255       .  A
C1162      C2010   1.421       .  S
O1167     Ni1173   1.923       .  S
O1167      C1188   1.270   1_554  A
O1168     Ni1191   1.880   1_455  S
O1168      C1177   1.269   1_455  A
O1169     Ni1173   1.927   1_556  S
O1169     Ni1191   1.904       .  S
O1169     Ni1185   1.882       .  S
O1169      H1192   0.961       .  S
C1170      O1187   1.291       .  A
C1170      O1179   1.286       .  A
C1170      C2111   1.509       .  S
O1171     Ni1190   1.991   1_655  S
O1171      C1177   1.299       .  A
O1172     Ni1190   2.002   1_655  S
O1172      C1174   1.286       .  A
C1174      O1184   1.267       .  A
C1174      C2069   1.560       .  S
O1175      C1181   1.265       .  A
O1176      C1181   1.261       .  A
C1177      C1982   1.492       .  S
O1178      C1180   1.267       .  A
O1179     Ni1190   1.940       .  S
C1180      C2122   1.521       .  S
C1181      C2083   1.479       .  S
H1182      O1183   0.966       .  S
O1183     Ni1191   1.891   1_455  S
O1183     Ni1185   1.879   1_455  S
O1183     Ni1190   1.902       .  S
O1184     Ni1185   1.935       .  S
Ni1185     O1189   1.859       .  S
Ni1185     O1187   1.953   1_655  S
O1186     Ni1191   2.024   1_454  S
C1188      O1189   1.252       .  A
C1188      C2013   1.416       .  S
O1193     Ni1199   1.897       .  S
O1193      C1214   1.258       .  A
O1194     Ni1217   1.871       .  S
O1194      C1203   1.269       .  A
O1195     Ni1199   1.875       .  S
O1195     Ni1217   1.844       .  S
O1195     Ni1211   1.908       .  S
O1195      H1218   0.963       .  S
C1196      O1213   1.254       .  A
C1196      O1205   1.293       .  A
C1196      C1912   1.494       .  S
O1197     Ni1216   1.988       .  S
O1197      C1203   1.295       .  A
O1198      C1200   1.275       .  A
Ni1199     O1202   1.888       .  S
Ni1199     O1204   1.885       .  S
C1200      C1940   1.516       .  S
O1201     Ni1217   1.972       .  S
O1201      C1207   1.297       .  A
O1202      C1207   1.280       .  A
C1203      C2027   1.482       .  S
O1204      C1206   1.249       .  A
C1206      O1212   1.272       .  A
C1206      C1926   1.488       .  S
C1207      C1957   1.484       .  S
H1208      O1209   0.966       .  S
O1209     Ni1217   1.922       .  S
O1209     Ni1211   1.873       .  S
O1209     Ni1216   1.893       .  S
O1210     Ni1211   2.002       .  S
Ni1211     O1215   1.900       .  S
O1212     Ni1217   1.977       .  S
C1214      O1215   1.261       .  A
C1214      C1971   1.459       .  S
O1219     Ni1225   1.906       .  S
O1219      C1240   1.260       .  A
O1220     Ni1243   1.863       .  S
O1220      C1229   1.269       .  A
O1221     Ni1225   1.879       .  S
O1221     Ni1243   1.859       .  S
O1221     Ni1237   1.896       .  S
O1221      H1244   0.964       .  S
C1222      O1231   1.288       .  A
C1222      C1856   1.473       .  S
O1223     Ni1242   1.974       .  S
O1223      C1229   1.292       .  A
O1224     Ni1242   1.933       .  S
O1224      C1226   1.279       .  A
Ni1225     O1228   1.902       .  S
Ni1225     O1230   1.897       .  S
C1226      O1236   1.290       .  A
O1227     Ni1243   1.956       .  S
O1227      C1233   1.288       .  A
O1228      C1233   1.281       .  A
C1229      C2097   1.468       .  S
O1230      C1232   1.256       .  A
C1232      O1238   1.273       .  A
C1232      C1873   1.502       .  S
C1233      C1901   1.474       .  S
H1234      O1235   0.965       .  S
O1235     Ni1243   1.907       .  S
O1235     Ni1237   1.863       .  S
O1235     Ni1242   1.887       .  S
O1236     Ni1237   1.995       .  S
Ni1237     O1241   1.880       .  S
Ni1237     O1239   1.869       .  S
O1238     Ni1243   1.976       .  S
C1240      O1241   1.269       .  A
C1240      C1968   1.446       .  S
O1245     Ni1251   2.003       .  S
O1245      C1266   1.298       .  A
O1246     Ni1269   1.882       .  S
O1246      C1255   1.252       .  A
O1247     Ni1251   1.902       .  S
O1247     Ni1269   1.862       .  S
O1247     Ni1263   1.931       .  S
O1247      H1270   0.966       .  S
C1248      O1265   1.290       .  A
C1248      O1257   1.274       .  A
C1248      C1929   1.490       .  S
O1249     Ni1268   1.888       .  S
O1249      C1255   1.265       .  A
O1250     Ni1268   1.879       .  S
O1250      C1252   1.260       .  A
Ni1251     O1254   2.036       .  S
Ni1251     O1256   1.923       .  S
C1252      O1262   1.269       .  A
C1252      C1898   1.469       .  S
O1253     Ni1269   1.877       .  S
O1253      C1259   1.255       .  A
O1254      C1259   1.295       .  A
C1255      C1842   1.433       .  S
O1256      C1258   1.277       .  A
O1257     Ni1268   1.902       .  S
C1258      O1264   1.288       .  A
C1258      C1915   1.517       .  S
C1259      C1887   1.521       .  S
H1260      O1261   0.963       .  S
O1261     Ni1269   1.929       .  S
O1261     Ni1263   1.837       .  S
O1261     Ni1268   1.904       .  S
O1262     Ni1263   1.943       .  S
Ni1263     O1267   1.834       .  S
Ni1263     O1265   1.974       .  S
O1264     Ni1269   1.979       .  S
C1266      O1267   1.262       .  A
C1266      C1831   1.499       .  S
O1271     Ni1277   1.888       .  S
O1271      C1292   1.266       .  A
O1272     Ni1295   1.860       .  S
O1272      C1281   1.274       .  A
O1273     Ni1277   1.869       .  S
O1273     Ni1295   1.864       .  S
O1273     Ni1289   1.878       .  S
O1273      H1296   0.966       .  S
C1274      O1291   1.277       .  A
C1274      O1283   1.279       .  A
C1274      C1859   1.488       .  S
O1275     Ni1294   1.962       .  S
O1275      C1281   1.297       .  A
O1276     Ni1294   2.018       .  S
O1276      C1278   1.281       .  A
Ni1277     O1280   1.887       .  S
Ni1277     O1282   1.881       .  S
C1278      O1288   1.244       .  A
C1278      C1943   1.535       .  S
O1279     Ni1295   1.934       .  S
O1279      C1285   1.280       .  A
O1280      C1285   1.274       .  A
C1281      C1814   1.461       .  S
O1282      C1284   1.261       .  A
O1283     Ni1294   1.936       .  S
C1284      O1290   1.288       .  A
C1284      C1870   1.498       .  S
C1285      C1954   1.467       .  S
H1286      O1287   0.962       .  S
O1287     Ni1295   1.898       .  S
O1287     Ni1289   1.846       .  S
O1287     Ni1294   1.910       .  S
O1288     Ni1289   1.886       .  S
Ni1289     O1293   1.833       .  S
Ni1289     O1291   1.915       .  S
O1290     Ni1295   1.990       .  S
C1292      O1293   1.241       .  A
C1292      C1845   1.396       .  S
O1297     Ni1303   1.998   1_556  S
O1297      C1318   1.297       .  A
O1298     Ni1321   1.886       .  S
O1298      C1307   1.271       .  A
O1299     Ni1303   1.889   1_556  S
O1299     Ni1321   1.870       .  S
O1299     Ni1315   1.940       .  S
O1299      H1322   0.966       .  S
C1300      O1317   1.295       .  A
C1300      O1309   1.279       .  A
C1300      C1786   1.481       .  S
O1301     Ni1320   1.917       .  S
O1301      C1307   1.265       .  A
O1302     Ni1320   1.883       .  S
O1302      C1304   1.255       .  A
Ni1303     O1308   1.905   1_554  S
C1304      O1314   1.262       .  A
C1304      C1761   1.470       .  S
O1305      C1311   1.255       .  A
O1306      C1311   1.293       .  A
C1307      C1800   1.445       .  S
O1309     Ni1320   1.900       .  S
C1310      C1772   1.516       .  S
C1311      C1744   1.520       .  S
H1312      O1313   0.965       .  S
O1313     Ni1321   1.894       .  S
O1313     Ni1315   1.845       .  S
O1313     Ni1320   1.860       .  S
O1314     Ni1315   1.940       .  S
Ni1315     O1319   1.853       .  S
Ni1315     O1317   1.973       .  S
O1316     Ni1321   1.991       .  S
C1318      O1319   1.262       .  A
C1318      C1733   1.478       .  S
O1323     Ni1329   1.876       .  S
O1323      C1344   1.262       .  A
O1324     Ni1347   1.851       .  S
O1324      C1333   1.268       .  A
O1325     Ni1329   1.874       .  S
O1325     Ni1347   1.878       .  S
O1325     Ni1341   1.890       .  S
O1325      H1348   0.961       .  S
C1326      O1343   1.265       .  A
C1326      O1335   1.298       .  A
C1326      C1702   1.495       .  S
O1327     Ni1346   2.009       .  S
O1327      C1333   1.302       .  A
O1328     Ni1346   1.963   1_554  S
Ni1329     O1332   1.881       .  S
Ni1329     O1334   1.928       .  S
C1330      C1674   1.494       .  S
O1331     Ni1347   1.961       .  S
O1331      C1337   1.283       .  A
O1332      C1337   1.267       .  A
C1333      C1660   1.506       .  S
O1334      C1336   1.269       .  A
C1336      O1342   1.264       .  A
C1336      C1719   1.482       .  S
C1337      C1691   1.474       .  S
H1338      O1339   0.967       .  S
O1339     Ni1347   1.898       .  S
O1339     Ni1341   1.870       .  S
O1339     Ni1346   1.873       .  S
O1340     Ni1341   1.922   1_554  S
Ni1341     O1345   1.884       .  S
O1342     Ni1347   1.926       .  S
C1344      O1345   1.258       .  A
C1344      C1803   1.437       .  S
O1349     Ni1355   1.903       .  S
O1349      C1370   1.267       .  A
O1350     Ni1373   1.855       .  S
O1350      C1359   1.267       .  A
O1351     Ni1355   1.885       .  S
O1351     Ni1373   1.872       .  S
O1351     Ni1367   1.922       .  S
O1351      H1374   0.963       .  S
C1352      O1369   1.256       .  A
C1352      O1361   1.291       .  A
C1352      C1705   1.484       .  S
O1353     Ni1372   1.983       .  S
O1353      C1359   1.294       .  A
O1354     Ni1372   1.935       .  S
O1354      C1356   1.277       .  A
Ni1355     O1358   1.907       .  S
Ni1355     O1360   1.906       .  S
C1356      O1366   1.288       .  A
C1356      C1747   1.523       .  S
O1357     Ni1373   1.943       .  S
O1357      C1363   1.280       .  A
O1358      C1363   1.277       .  A
C1359      C1817   1.469       .  S
O1360      C1362   1.262       .  A
O1361     Ni1372   2.000       .  S
C1362      O1368   1.269       .  A
C1362      C1716   1.478       .  S
C1363      C1758   1.474       .  S
H1364      O1365   0.967       .  S
O1365     Ni1373   1.898       .  S
O1365     Ni1367   1.855       .  S
O1365     Ni1372   1.886       .  S
O1366     Ni1367   1.985       .  S
Ni1367     O1371   1.861       .  S
Ni1367     O1369   1.872       .  S
O1368     Ni1373   1.943       .  S
C1370      O1371   1.256       .  A
C1370      C1646   1.444       .  S
O1375     Ni1381   1.910       .  S
O1375      C1396   1.265       .  A
O1376     Ni1399   1.858       .  S
O1376      C1385   1.266       .  A
O1377     Ni1381   1.850       .  S
O1377     Ni1399   1.843       .  S
O1377     Ni1393   1.900       .  S
O1377      H1400   0.958       .  S
C1378      O1395   1.250       .  A
C1378      O1387   1.293       .  A
C1378      C1775   1.488       .  S
O1379     Ni1398   1.988       .  S
O1379      C1385   1.296       .  A
O1380     Ni1398   1.934       .  S
O1380      C1382   1.276       .  A
Ni1381     O1384   1.920       .  S
Ni1381     O1386   1.883       .  S
C1382      O1392   1.286       .  A
C1382      C1677   1.506       .  S
O1383     Ni1399   1.942       .  S
O1383      C1389   1.288       .  A
O1384      C1389   1.288       .  A
C1385      C1828   1.495       .  S
O1386      C1388   1.254       .  A
O1387     Ni1398   2.022       .  S
C1388      O1394   1.274       .  A
C1388      C1789   1.478       .  S
C1389      C1688   1.490       .  S
H1390      O1391   0.967       .  S
O1391     Ni1399   1.915       .  S
O1391     Ni1393   1.864       .  S
O1391     Ni1398   1.896       .  S
O1392     Ni1393   1.980       .  S
Ni1393     O1397   1.884       .  S
Ni1393     O1395   1.853       .  S
O1394     Ni1399   1.965       .  S
C1396      O1397   1.256       .  A
C1396      C1649   1.448       .  S
O1401     Ni1407   1.916       .  S
O1401      C1422   1.279       .  A
O1402     Ni1425   1.895       .  S
O1402      C1411   1.272       .  A
O1403     Ni1407   1.805       .  S
O1403     Ni1425   1.839       .  S
O1403     Ni1419   1.833       .  S
O1403      H1426   0.966       .  S
C1404      O1421   1.259       .  A
C1404      O1413   1.295       .  A
C1404      C1618   1.502       .  S
O1405     Ni1424   1.972       .  S
O1405      C1411   1.291       .  A
O1406     Ni1424   1.966       .  S
O1406      C1408   1.277       .  A
Ni1407     O1410   1.858       .  S
Ni1407     O1412   1.877       .  S
C1408      O1418   1.270       .  A
C1408      C1576   1.518       .  S
O1409     Ni1425   1.968       .  S
O1409      C1415   1.304       .  A
O1410      C1415   1.279       .  A
C1411      C1663   1.500       .  S
O1412      C1414   1.253       .  A
O1413     Ni1424   2.003       .  S
C1414      O1420   1.295       .  A
C1414      C1604   1.507       .  S
C1415      C1590   1.472       .  S
H1416      O1417   0.966       .  S
O1417     Ni1425   1.907       .  S
O1417     Ni1419   1.904       .  S
O1417     Ni1424   1.888       .  S
O1418     Ni1419   1.939       .  S
Ni1419     O1423   1.899       .  S
Ni1419     O1421   1.842       .  S
O1420     Ni1425   2.025       .  S
C1422      O1423   1.267       .  A
C1422      C1635   1.457       .  S
O1427     Ni1433   1.899       .  S
O1427      C1448   1.267       .  A
O1428     Ni1451   1.853       .  S
O1428      C1437   1.263       .  A
O1429     Ni1433   1.877       .  S
O1429     Ni1451   1.880       .  S
O1429     Ni1445   1.918       .  S
O1429      H1452   0.965       .  S
C1430      O1447   1.287       .  A
C1430      O1439   1.295       .  A
C1430      C1548   1.499       .  S
O1431     Ni1450   2.008       .  S
O1431      C1437   1.303       .  A
O1432     Ni1450   1.987       .  S
O1432      C1434   1.284       .  A
Ni1433     O1436   1.893       .  S
Ni1433     O1438   1.914       .  S
C1434      O1444   1.252       .  A
C1434      C1520   1.516       .  S
O1435     Ni1451   1.923       .  S
O1435      C1441   1.252       .  A
O1436      C1441   1.254       .  A
C1437      C1730   1.485       .  S
O1438      C1440   1.282       .  A
O1439     Ni1450   1.965       .  S
C1440      O1446   1.306       .  A
C1440      C1562   1.504       .  S
C1441      C1537   1.458       .  S
H1442      O1443   0.966       .  S
O1443     Ni1451   1.845       .  S
O1443     Ni1445   1.849       .  S
O1443     Ni1450   1.876       .  S
O1444     Ni1445   1.887       .  S
Ni1445     O1449   1.870       .  S
Ni1445     O1447   1.904       .  S
O1446     Ni1451   2.018       .  S
C1448      O1449   1.271       .  A
C1448      C1632   1.451       .  S
O1453     Ni1459   1.944   1_455  S
O1453      C1474   1.274       .  A
O1454     Ni1477   1.902       .  S
O1454      C1463   1.278   1_455  A
O1455     Ni1459   1.869       .  S
O1455     Ni1477   1.864   1_655  S
O1455     Ni1471   1.853   1_655  S
O1455      H1478   0.959       .  S
C1456      O1473   1.256       .  A
C1456      O1465   1.296       .  A
C1456      C1621   1.487       .  S
O1457     Ni1476   1.985   1_655  S
O1457      C1463   1.296       .  A
O1458     Ni1476   1.981   1_655  S
O1458      C1460   1.282       .  A
Ni1459     O1464   1.894   1_655  S
C1460      O1470   1.267       .  A
C1460      C1523   1.525       .  S
O1461      C1467   1.288       .  A
O1462      C1467   1.288   1_554  A
C1463      C1985   1.498       .  S
O1465     Ni1476   2.001       .  S
C1466      C1607   1.522       .  S
C1467      C1534   1.481       .  S
H1468      O1469   0.967       .  S
O1469     Ni1477   1.901       .  S
O1469     Ni1471   1.877       .  S
O1469     Ni1476   1.892       .  S
O1470     Ni1471   1.935   1_655  S
Ni1471     O1475   1.840       .  S
Ni1471     O1473   1.841       .  S
O1472     Ni1477   1.998       .  S
C1474      O1475   1.247       .  A
C1474      C1509   1.470       .  S
O1479     Ni1485   1.909       .  S
O1479      C1500   1.267       .  A
O1480     Ni1503   1.849       .  S
O1480      C1489   1.258       .  A
O1481     Ni1485   1.878       .  S
O1481     Ni1503   1.871       .  S
O1481     Ni1497   1.932       .  S
O1481      H1504   0.965       .  S
C1482      O1499   1.280   1_655  A
C1482      O1491   1.296   1_655  A
C1482      C1551   1.476       .  S
O1483     Ni1502   2.019       .  S
O1483      C1489   1.302       .  A
O1484     Ni1502   1.997       .  S
O1484      C1486   1.287       .  A
Ni1485     O1490   1.918       .  S
C1486      O1496   1.255       .  A
C1486      C1579   1.520       .  S
O1487     Ni1503   1.883       .  S
O1488      C1493   1.270       .  A
C1489      C1999   1.488       .  S
O1491     Ni1502   1.978       .  S
C1492      C1565   1.506   1_455  S
C1493      C1593   1.457       .  S
H1494      O1495   0.966   1_655  S
O1495     Ni1503   1.846       .  S
O1495     Ni1497   1.856       .  S
O1495     Ni1502   1.883       .  S
O1496     Ni1497   1.901       .  S
Ni1497     O1501   1.878       .  S
Ni1497     O1499   1.890       .  S
O1498     Ni1503   2.004       .  S
C1500      O1501   1.263       .  A
C1500      C1506   1.456       .  S
C1505      C1506   1.405       .  A
C1505      C1510   1.398       .  A
C1505      H1512   1.082       .  S
C1506      C1507   1.423       .  A
C1507      C1508   1.390       .  A
C1507      N1514   1.428       .  S
C1508      C1509   1.387       .  A
C1508      H1513   1.082       .  S
C1509      C1510   1.404       .  A
C1510      N1511   1.438       .  S
N1511      O1515   1.263       .  A
N1511      O1516   1.263       .  A
N1514      O1517   1.262       .  A
N1514      O1518   1.259       .  A
C1519      C1520   1.401       .  A
C1519      C1524   1.419       .  A
C1519      H1526   1.084       .  S
C1520      C1521   1.430       .  A
C1521      C1522   1.427       .  A
C1521      N1528   1.439       .  S
C1522      C1523   1.405       .  A
C1522      H1527   1.083       .  S
C1523      C1524   1.422       .  A
C1524      N1525   1.426       .  S
N1525      O1529   1.263       .  A
N1525      O1530   1.263       .  A
N1528      O1531   1.262       .  A
N1528      O1532   1.263       .  A
C1533      C1534   1.410   1_554  A
C1533      C1538   1.399   1_554  A
C1533      H1540   1.075       .  S
C1534      C1535   1.415       .  A
C1535      C1536   1.410       .  A
C1535      N1542   1.438       .  S
C1536      C1537   1.407       .  A
C1536      H1541   1.084       .  S
C1537      C1538   1.397       .  A
C1538      N1539   1.441   1_556  S
N1539      O1543   1.263       .  A
N1539      O1544   1.263   1_554  A
N1542      O1545   1.262       .  A
N1542      O1546   1.262       .  A
C1547      C1548   1.411       .  A
C1547      C1552   1.407       .  A
C1547      H1554   1.082       .  S
C1548      C1549   1.418       .  A
C1549      C1550   1.403       .  A
C1549      N1556   1.433       .  S
C1550      C1551   1.402       .  A
C1550      H1555   1.084       .  S
C1551      C1552   1.416       .  A
C1552      N1553   1.444   1_655  S
N1553      O1557   1.262       .  A
N1553      O1558   1.260       .  A
N1556      O1559   1.263       .  A
N1556      O1560   1.262       .  A
C1561      C1562   1.405       .  A
C1561      C1566   1.415       .  A
C1561      H1568   1.084       .  S
C1562      C1563   1.420       .  A
C1563      C1564   1.420       .  A
C1563      N1570   1.437       .  S
C1564      C1565   1.407       .  A
C1564      H1569   1.083   1_655  S
C1565      C1566   1.417       .  A
C1566      N1567   1.433   1_556  S
N1567      O1571   1.263       .  A
N1570      O1573   1.261       .  A
N1570      O1574   1.263       .  A
C1575      C1576   1.413       .  A
C1575      C1580   1.427       .  A
C1575      H1582   1.082       .  S
C1576      C1577   1.421       .  A
C1577      C1578   1.424       .  A
C1577      N1584   1.445       .  S
C1578      C1579   1.417       .  A
C1578      H1583   1.083       .  S
C1579      C1580   1.415       .  A
C1580      N1581   1.438       .  S
N1581      O1585   1.260       .  A
N1581      O1586   1.262       .  A
N1584      O1587   1.262       .  A
N1584      O1588   1.263       .  A
C1589      C1590   1.407       .  A
C1589      C1594   1.402       .  A
C1589      H1596   1.083       .  S
C1590      C1591   1.432       .  A
C1591      C1592   1.395       .  A
C1591      N1598   1.437       .  S
C1592      C1593   1.387       .  A
C1592      H1597   1.085       .  S
C1593      C1594   1.405       .  A
C1594      N1595   1.441       .  S
N1595      O1599   1.263       .  A
N1595      O1600   1.263       .  A
N1598      O1601   1.261       .  A
N1598      O1602   1.262       .  A
C1603      C1604   1.416       .  A
C1603      C1608   1.432       .  A
C1603      H1610   1.083       .  S
C1604      C1605   1.405       .  A
C1605      C1606   1.406       .  A
C1605      N1612   1.432       .  S
C1606      C1607   1.412       .  A
C1606      H1611   1.078       .  S
C1607      C1608   1.425       .  A
C1608      N1609   1.441       .  S
N1609      O1613   1.263       .  A
N1609      O1614   1.262       .  A
N1612      O1615   1.261       .  A
N1612      O1616   1.262       .  A
C1617      C1618   1.419       .  A
C1617      C1622   1.409       .  A
C1617      H1624   1.084       .  S
C1618      C1619   1.406       .  A
C1619      C1620   1.414       .  A
C1619      N1626   1.438       .  S
C1620      C1621   1.421       .  A
C1620      H1625   1.084       .  S
C1621      C1622   1.412       .  A
C1622      N1623   1.445       .  S
N1623      O1627   1.263       .  A
N1623      O1628   1.261       .  A
N1626      O1629   1.262       .  A
N1626      O1630   1.262       .  A
C1631      C1632   1.403   1_455  A
C1631      C1636   1.406       .  A
C1631      H1638   1.083   1_455  S
C1632      C1633   1.392   1_655  A
C1633      C1634   1.391       .  A
C1633      N1640   1.434       .  S
C1634      C1635   1.405       .  A
C1634      H1639   1.081       .  S
C1635      C1636   1.418       .  A
C1636      N1637   1.437       .  S
N1637      O1641   1.262       .  A
N1637      O1642   1.263       .  A
N1640      O1643   1.263       .  A
N1640      O1644   1.262       .  A
C1645      C1646   1.407       .  A
C1645      C1650   1.393       .  A
C1645      H1652   1.085       .  S
C1646      C1647   1.403       .  A
C1647      C1648   1.389       .  A
C1647      N1654   1.435       .  S
C1648      C1649   1.400       .  A
C1648      H1653   1.084       .  S
C1649      C1650   1.408       .  A
C1650      N1651   1.440       .  S
N1651      O1655   1.262       .  A
N1651      O1656   1.263       .  A
N1654      O1657   1.263       .  A
N1654      O1658   1.261       .  A
C1659      C1660   1.414       .  A
C1659      C1664   1.397       .  A
C1659      H1666   1.084       .  S
C1660      C1661   1.416       .  A
C1661      C1662   1.419       .  A
C1661      N1668   1.436       .  S
C1662      C1663   1.416       .  A
C1662      H1667   1.083       .  S
C1663      C1664   1.410       .  A
C1664      N1665   1.436       .  S
N1665      O1669   1.263       .  A
N1665      O1670   1.263       .  A
N1668      O1671   1.262       .  A
N1668      O1672   1.263       .  A
C1673      C1674   1.402       .  A
C1673      C1678   1.412       .  A
C1673      H1680   1.084       .  S
C1674      C1675   1.420       .  A
C1675      C1676   1.417       .  A
C1675      N1682   1.438       .  S
C1676      C1677   1.404       .  A
C1676      H1681   1.082       .  S
C1677      C1678   1.417       .  A
C1678      N1679   1.430       .  S
N1679      O1683   1.262       .  A
N1679      O1684   1.262       .  A
N1682      O1686   1.263       .  A
C1687      C1688   1.408       .  A
C1687      C1692   1.407       .  A
C1687      H1694   1.081       .  S
C1688      C1689   1.419       .  A
C1689      C1690   1.406       .  A
C1689      N1696   1.433       .  S
C1690      C1691   1.405       .  A
C1690      H1695   1.084       .  S
C1691      C1692   1.408       .  A
C1692      N1693   1.441       .  S
N1693      O1697   1.263       .  A
N1693      O1698   1.263       .  A
N1696      O1699   1.262       .  A
N1696      O1700   1.262       .  A
C1701      C1702   1.409       .  A
C1701      C1706   1.399       .  A
C1701      H1708   1.083       .  S
C1702      C1703   1.417       .  A
C1703      C1704   1.419       .  A
C1703      N1710   1.439       .  S
C1704      C1705   1.412       .  A
C1704      H1709   1.083       .  S
C1705      C1706   1.411       .  A
C1706      N1707   1.438       .  S
N1707      O1711   1.261       .  A
N1707      O1712   1.263       .  A
N1710      O1713   1.262       .  A
N1710      O1714   1.263       .  A
C1715      C1716   1.406       .  A
C1715      C1720   1.408       .  A
C1715      H1722   1.084       .  S
C1716      C1717   1.412       .  A
C1717      C1718   1.410       .  A
C1717      N1724   1.443       .  S
C1718      C1719   1.406       .  A
C1718      H1723   1.084       .  S
C1719      C1720   1.407       .  A
C1720      N1721   1.437       .  S
N1721      O1725   1.263       .  A
N1721      O1726   1.262       .  A
N1724      O1727   1.263       .  A
N1724      O1728   1.263       .  A
C1729      C1730   1.401       .  A
C1729      C1734   1.410       .  A
C1729      H1736   1.084       .  S
C1730      C1731   1.422       .  A
C1731      C1732   1.411       .  A
C1731      N1738   1.442       .  S
C1732      C1733   1.401       .  A
C1732      H1737   1.084       .  S
C1733      C1734   1.421       .  A
C1734      N1735   1.443       .  S
N1735      O1739   1.263       .  A
N1735      O1740   1.263       .  A
N1738      O1741   1.263       .  A
N1738      O1742   1.263       .  A
C1743      C1744   1.414       .  A
C1743      C1748   1.414       .  A
C1743      H1750   1.084       .  S
C1744      C1745   1.414       .  A
C1745      C1746   1.424       .  A
C1745      N1752   1.429       .  S
C1746      C1747   1.414       .  A
C1746      H1751   1.077       .  S
C1747      C1748   1.417       .  A
C1748      N1749   1.432       .  S
N1749      O1753   1.262       .  A
N1749      O1754   1.262       .  A
N1752      O1755   1.262       .  A
N1752      O1756   1.262       .  A
C1757      C1758   1.401       .  A
C1757      C1762   1.412       .  A
C1757      H1764   1.083       .  S
C1758      C1759   1.419       .  A
C1759      C1760   1.407       .  A
C1759      N1766   1.442       .  S
C1760      C1761   1.400       .  A
C1760      H1765   1.083       .  S
C1761      C1762   1.414       .  A
C1762      N1763   1.440       .  S
N1763      O1767   1.263       .  A
N1763      O1768   1.263       .  A
N1766      O1769   1.263       .  A
N1766      O1770   1.263       .  A
C1771      C1772   1.409       .  A
C1771      C1776   1.420       .  A
C1771      H1778   1.083       .  S
C1772      C1773   1.426       .  A
C1773      C1774   1.408       .  A
C1773      N1780   1.433       .  S
C1774      C1775   1.402       .  A
C1774      H1779   1.084       .  S
C1775      C1776   1.419       .  A
C1776      N1777   1.439       .  S
N1777      O1781   1.262       .  A
N1777      O1782   1.263       .  A
N1780      O1783   1.263       .  A
N1780      O1784   1.262       .  A
C1785      C1786   1.407       .  A
C1785      C1790   1.411       .  A
C1785      H1792   1.084       .  S
C1786      C1787   1.413       .  A
C1787      C1788   1.411       .  A
C1787      N1794   1.442       .  S
C1788      C1789   1.407       .  A
C1788      H1793   1.084       .  S
C1789      C1790   1.412       .  A
C1790      N1791   1.442       .  S
N1791      O1795   1.263       .  A
N1791      O1796   1.263       .  A
N1794      O1797   1.262       .  A
N1794      O1798   1.263       .  A
C1799      C1800   1.396       .  A
C1799      C1804   1.382       .  A
C1799      H1806   1.083       .  S
C1800      C1801   1.406       .  A
C1801      C1802   1.400       .  A
C1801      N1808   1.437       .  S
C1802      C1803   1.402       .  A
C1802      H1807   1.081       .  S
C1803      C1804   1.404       .  A
C1804      N1805   1.443       .  S
N1805      O1809   1.263       .  A
N1805      O1810   1.258       .  A
N1808      O1811   1.262       .  A
N1808      O1812   1.263       .  A
C1813      C1814   1.397       .  A
C1813      C1818   1.399   1_565  A
C1813      H1820   1.085       .  S
C1814      C1815   1.416       .  A
C1815      C1816   1.407   1_565  A
C1815      N1822   1.441       .  S
C1816      C1817   1.400       .  A
C1816      H1821   1.083       .  S
C1817      C1818   1.418       .  A
C1818      N1819   1.442       .  S
N1819      O1823   1.263       .  A
N1819      O1824   1.263       .  A
N1822      O1825   1.263       .  A
N1822      O1826   1.263       .  A
C1827      C1828   1.421       .  A
C1827      C1832   1.410       .  A
C1827      H1834   1.083       .  S
C1828      C1829   1.405       .  A
C1829      C1830   1.396       .  A
C1829      N1836   1.433       .  S
C1830      C1831   1.420       .  A
C1830      H1835   1.084       .  S
C1831      C1832   1.408       .  A
C1832      N1833   1.436       .  S
N1833      O1837   1.262       .  A
N1833      O1838   1.262       .  A
N1836      O1839   1.262       .  A
N1836      O1840   1.262       .  A
C1841      C1842   1.402       .  A
C1841      C1846   1.362       .  A
C1841      H1848   1.050       .  S
C1842      C1843   1.404       .  A
C1843      C1844   1.395       .  A
C1843      N1850   1.442       .  S
C1844      C1845   1.404       .  A
C1844      H1849   1.083       .  S
C1845      C1846   1.384       .  A
C1846      N1847   1.445       .  S
N1847      O1851   1.262       .  A
N1847      O1852   1.262       .  A
N1850      O1853   1.262       .  A
N1850      O1854   1.263       .  A
C1855      C1856   1.401       .  A
C1855      C1860   1.393       .  A
C1855      H1862   1.085       .  S
C1856      C1857   1.418       .  A
C1857      C1858   1.419       .  A
C1857      N1864   1.442       .  S
C1858      C1859   1.408       .  A
C1858      H1863   1.083       .  S
C1859      C1860   1.407       .  A
C1860      N1861   1.429       .  S
N1861      O1865   1.260       .  A
N1861      O1866   1.263       .  A
N1864      O1868   1.263       .  A
C1869      C1870   1.405       .  A
C1869      C1874   1.420       .  A
C1869      H1876   1.083       .  S
C1870      C1871   1.421       .  A
C1871      C1872   1.412       .  A
C1871      N1878   1.437       .  S
C1872      C1873   1.401       .  A
C1872      H1877   1.084       .  S
C1873      C1874   1.423       .  A
C1874      N1875   1.438       .  S
N1875      O1879   1.263       .  A
N1875      O1880   1.261       .  A
N1878      O1881   1.260       .  A
N1878      O1882   1.262       .  A
C1883      C1884   1.409       .  A
C1883      C1888   1.417       .  A
C1883      H1890   1.083       .  S
C1884      C1885   1.426       .  A
C1885      C1886   1.426       .  A
C1886      C1887   1.408       .  A
C1886      H1891   1.083       .  S
C1887      C1888   1.426       .  A
C1888      N1889   1.440       .  S
N1889      O1893   1.263       .  A
N1889      O1894   1.263       .  A
N1892      O1895   1.260       .  A
N1892      O1896   1.262       .  A
C1897      C1898   1.399       .  A
C1897      C1902   1.407       .  A
C1897      H1904   1.083       .  S
C1898      C1899   1.416       .  A
C1899      C1900   1.410       .  A
C1899      N1906   1.441       .  S
C1900      C1901   1.399       .  A
C1900      H1905   1.083       .  S
C1901      C1902   1.419       .  A
C1902      N1903   1.443       .  S
N1903      O1907   1.263       .  A
N1903      O1908   1.262       .  A
N1906      O1909   1.262       .  A
N1906      O1910   1.263       .  A
C1911      C1912   1.404       .  A
C1911      C1916   1.410       .  A
C1911      H1918   1.083       .  S
C1912      C1913   1.417       .  A
C1913      C1914   1.422       .  A
C1913      N1920   1.442       .  S
C1914      C1915   1.415       .  A
C1914      H1919   1.082       .  S
C1915      C1916   1.418       .  A
C1916      N1917   1.432       .  S
N1917      O1921   1.261       .  A
N1917      O1922   1.259       .  A
N1920      O1923   1.263       .  A
N1920      O1924   1.263       .  A
C1925      C1926   1.409       .  A
C1925      C1930   1.417       .  A
C1925      H1932   1.083       .  S
C1926      C1927   1.413       .  A
C1927      C1928   1.412       .  A
C1927      N1934   1.443       .  S
C1928      C1929   1.407       .  A
C1928      H1933   1.082       .  S
C1929      C1930   1.414       .  A
C1930      N1931   1.442       .  S
N1931      O1935   1.263       .  A
N1931      O1936   1.262       .  A
N1934      O1937   1.263       .  A
N1934      O1938   1.263       .  A
C1939      C1940   1.417       .  A
C1939      C1944   1.435       .  A
C1939      H1946   1.080   1_556  S
C1940      C1941   1.404       .  A
C1941      C1942   1.406       .  A
C1941      N1948   1.434       .  S
C1942      C1943   1.420       .  A
C1942      H1947   1.080       .  S
C1943      C1944   1.423       .  A
C1944      N1945   1.438       .  S
N1945      O1949   1.262   1_556  A
N1945      O1950   1.262       .  A
N1948      O1951   1.261       .  A
N1948      O1952   1.262       .  A
C1953      C1954   1.393       .  A
C1953      C1958   1.406       .  A
C1953      H1960   1.084       .  S
C1954      C1955   1.418       .  A
C1955      C1956   1.413       .  A
C1955      N1962   1.441       .  S
C1956      C1957   1.401       .  A
C1956      H1961   1.083       .  S
C1957      C1958   1.429       .  A
C1958      N1959   1.443       .  S
N1959      O1963   1.263       .  A
N1959      O1964   1.259       .  A
N1962      O1965   1.263       .  A
N1962      O1966   1.262       .  A
C1967      C1968   1.393       .  A
C1967      C1972   1.389       .  A
C1967      H1974   1.085       .  S
C1968      C1969   1.404       .  A
C1969      C1970   1.388       .  A
C1969      N1976   1.441       .  S
C1970      C1971   1.407       .  A
C1970      H1975   1.085       .  S
C1971      C1972   1.415       .  A
N1973      O1977   1.259       .  A
N1973      O1978   1.259       .  A
N1976      O1979   1.263       .  A
N1976      O1980   1.262       .  A
C1981      C1982   1.409   1_545  A
C1981      H1988   1.083   1_545  S
C1982      C1983   1.416   1_665  A
C1983      N1990   1.442   1_545  S
C1984      C1985   1.406   1_455  A
C1984      H1989   1.084       .  S
C1985      C1986   1.419       .  A
C1986      N1987   1.444       .  S
N1987      O1991   1.263       .  A
N1987      O1992   1.263       .  A
N1990      O1993   1.262       .  A
N1990      O1994   1.263   1_565  A
C1995      C1996   1.404       .  A
C1995      H2002   1.083       .  S
C1996      C1997   1.421   1_455  A
C1997      N2004   1.442       .  S
C1998      C1999   1.404   1_655  A
C1998      H2003   1.084       .  S
C1999      C2000   1.422       .  A
C2000      N2001   1.442       .  S
N2001      O2005   1.263       .  A
N2001      O2006   1.262       .  A
N2004      O2007   1.263       .  A
N2004      O2008   1.263   1_556  A
C2009      C2010   1.388       .  A
C2009      C2014   1.375       .  A
C2009      H2016   1.086       .  S
C2010      C2011   1.404   1_455  A
C2011      C2012   1.386       .  A
C2011      N2018   1.424       .  S
C2012      C2013   1.394       .  A
C2012      H2017   1.085       .  S
C2013      C2014   1.408   1_655  A
C2014      N2015   1.424       .  S
N2015      O2019   1.261   1_556  A
N2015      O2020   1.260       .  A
N2018      O2021   1.258       .  A
N2018      O2022   1.260       .  A
C2023      C2024   1.399       .  A
C2023      C2028   1.408       .  A
C2023      H2030   1.084       .  S
C2024      C2025   1.417       .  A
C2025      C2026   1.409       .  A
C2025      N2032   1.438       .  S
C2026      C2027   1.400       .  A
C2026      H2031   1.084       .  S
C2027      C2028   1.422       .  A
C2028      N2029   1.441       .  S
N2029      O2033   1.263       .  A
N2029      O2034   1.263       .  A
N2032      O2035   1.263       .  A
N2032      O2036   1.263       .  A
C2037      C2038   1.400       .  A
C2037      C2042   1.414       .  A
C2037      H2044   1.084       .  S
C2038      C2039   1.415       .  A
C2039      C2040   1.409       .  A
C2039      N2046   1.436   1_655  S
C2040      C2041   1.400       .  A
C2040      H2045   1.071       .  S
C2041      C2042   1.431       .  A
C2042      N2043   1.434       .  S
N2043      O2047   1.263       .  A
N2043      O2048   1.263       .  A
N2046      O2049   1.260       .  A
N2046      O2050   1.261       .  A
C2051      C2052   1.410       .  A
C2051      C2056   1.436       .  A
C2051      H2058   1.083       .  S
C2052      C2053   1.417       .  A
C2053      C2054   1.410       .  A
C2053      N2060   1.430       .  S
C2054      C2055   1.400       .  A
C2054      H2059   1.073       .  S
C2055      C2056   1.435       .  A
C2056      N2057   1.438       .  S
N2057      O2061   1.263       .  A
N2060      O2063   1.262       .  A
N2060      O2064   1.263       .  A
C2065      C2066   1.424       .  A
C2065      C2070   1.437       .  A
C2065      H2072   1.083       .  S
C2066      C2067   1.424       .  A
C2067      C2068   1.433       .  A
C2067      N2074   1.435       .  S
C2068      C2069   1.424       .  A
C2068      H2073   1.083       .  S
C2069      C2070   1.426       .  A
C2070      N2071   1.437       .  S
N2071      O2075   1.263       .  A
N2071      O2076   1.262       .  A
N2074      O2077   1.263       .  A
N2074      O2078   1.262       .  A
C2079      C2080   1.404       .  A
C2079      C2084   1.406       .  A
C2079      H2086   1.079       .  S
C2080      C2081   1.409       .  A
C2081      C2082   1.410       .  A
C2081      N2088   1.442       .  S
C2082      C2083   1.406       .  A
C2082      H2087   1.082       .  S
C2083      C2084   1.410       .  A
C2084      N2085   1.442       .  S
N2085      O2089   1.263       .  A
N2085      O2090   1.263       .  A
N2088      O2091   1.263       .  A
N2088      O2092   1.263       .  A
C2093      C2094   1.401       .  A
C2093      C2098   1.406       .  A
C2093      H2100   1.084       .  S
C2094      C2095   1.417       .  A
C2095      C2096   1.401       .  A
C2095      N2102   1.441       .  S
C2096      C2097   1.398       .  A
C2096      H2101   1.084       .  S
C2097      C2098   1.418       .  A
C2098      N2099   1.442       .  S
N2099      O2103   1.263       .  A
N2099      O2104   1.263       .  A
N2102      O2105   1.263       .  A
N2102      O2106   1.263       .  A
C2107      C2108   1.415       .  A
C2107      C2112   1.422       .  A
C2107      H2114   1.083       .  S
C2108      C2109   1.414       .  A
C2109      C2110   1.419       .  A
C2109      N2116   1.441       .  S
C2110      C2111   1.412       .  A
C2110      H2115   1.083       .  S
C2111      C2112   1.415       .  A
C2112      N2113   1.444       .  S
N2113      O2117   1.261       .  A
N2113      O2118   1.263       .  A
N2116      O2119   1.263       .  A
N2116      O2120   1.263       .  A
C2121      C2122   1.412       .  A
C2121      C2126   1.431       .  A
C2121      H2128   1.079       .  S
C2122      C2123   1.412       .  A
C2123      C2124   1.418       .  A
C2123      N2130   1.429       .  S
C2124      C2125   1.413       .  A
C2124      H2129   1.083       .  S
C2125      C2126   1.424       .  A
C2126      N2127   1.443       .  S
N2127      O2131   1.263       .  A
N2127      O2132   1.263       .  A
N2130      O2133   1.261       .  A
N2130      O2134   1.261       .  A
C2135      C2136   1.410       .  A
C2135      C2140   1.427       .  A
C2135      H2142   1.083       .  S
C2136      C2137   1.393       .  A
C2137      C2138   1.390       .  A
C2137      N2144   1.439       .  S
C2138      C2139   1.389       .  A
C2138      H2143   1.068       .  S
C2139      C2140   1.426       .  A
C2140      N2141   1.440       .  S
N2141      O2145   1.263       .  A
N2141      O2146   1.263       .  A
N2144      O2147   1.264       .  A
N2144      O2148   1.258       .  A
C2149      C2150   1.405       .  A
C2149      C2154   1.419       .  A
C2149      H2156   1.083       .  S
C2150      C2151   1.420       .  A
C2151      C2152   1.421       .  A
C2151      N2158   1.437       .  S
C2152      C2153   1.407       .  A
C2152      H2157   1.083       .  S
C2153      C2154   1.420       .  A
C2154      N2155   1.439       .  S
N2155      O2159   1.263       .  A
N2155      O2160   1.263       .  A
N2158      O2161   1.263       .  A
N2158      O2162   1.263       .  A
C2163      C2164   1.403   1_455  A
C2163      C2168   1.406       .  A
C2163      H2170   1.080       .  S
C2164      C2165   1.406       .  A
C2165      C2166   1.371   1_655  A
C2165      N2172   1.440       .  S
C2166      C2167   1.381       .  A
C2166      H2171   1.077       .  S
C2167      C2168   1.409       .  A
C2168      N2169   1.438       .  S
N2169      O2173   1.261       .  A
N2169      O2174   1.263       .  A
N2172      O2175   1.259       .  A
N2172      O2176   1.263   1_655  A
