geometry optimzed in LAMMPS
_audit_creation_date              2020-12-01 
_audit_creation_method            'lammps2cif' 
_symmetry_space_group_name_H-M    'P1' 
_symmetry_Int_Tables_number       1 
_symmetry_cell_setting            triclinic 
loop_ 
_symmetry_equiv_pos_as_xyz 
  x,y,z 
_cell_length_a                    30.7869191 
_cell_length_b                    30.776254723175008 
_cell_length_c                    56.112565511402 
_cell_angle_alpha                 89.98463586530785 
_cell_angle_beta                  90.40640711271028 
_cell_angle_gamma                 120.12771164039597 
loop_ 
_atom_site_label 
_atom_site_type_symbol 
_atom_site_fract_x 
_atom_site_fract_y 
_atom_site_fract_z 
_atom_site_charge 
Zr1        Zr  0.74057970  0.84476545  0.40916105     2.17500
O2          O  0.77675516  0.89738344  0.44445338    -0.51900
O3          O  0.80888775  0.83064558  0.40002496    -0.75100
O4          O  0.73957426  0.79779145  0.44437194    -0.81900
O5          O  0.78397718  0.95173077  0.36690297    -0.83600
O6          O  0.66381904  0.72607344  0.44581322    -0.79300
O7          O  0.80715927  0.92948081  0.40110221    -0.90900
O8          O  0.78637192  0.77748465  0.36848686    -0.76900
O9          O  0.69793254  0.75826644  0.39856620    -0.86400
O10         O  0.74519641  0.84267293  0.36672726    -0.86100
O11         O  0.65708718  0.81183261  0.42370961    -0.72800
O12         O  0.70206680  0.89042566  0.39385504    -0.84900
Zr13       Zr  0.57709441  0.76692605  0.35416056     2.26400
Zr14       Zr  0.61381081  0.72553786  0.41184344     2.06300
Zr15       Zr  0.70420935  0.88545551  0.35139308     2.10000
Zr16       Zr  0.70181991  0.75575300  0.35649539     1.78800
O17         O  0.68556604  0.95302434  0.34614187    -0.93700
O18         O  0.69561387  0.67520416  0.36516609    -0.41600
O19         O  0.66150334  0.79876795  0.34124421    -0.78200
O20         O  0.61629613  0.72086960  0.36921137    -0.96900
O21         O  0.57310750  0.76883013  0.39649875    -0.90200
O22         O  0.62005169  0.85394017  0.36466328    -0.93000
C23         C  0.81811215  0.80626767  0.38434067     1.00700
C24         C  0.81432646  0.96092691  0.38449552     1.13700
C25         C  0.70811115  0.75586231  0.45405778     1.04400
O26         O  0.60980252  0.64480247  0.41536482    -0.95200
O27         O  0.53159821  0.65761441  0.40014555    -0.90900
O28         O  0.51330583  0.68262866  0.36534415    -0.84100
C29         C  0.50295140  0.65075355  0.38213355     1.11100
O30         O  0.65327459  0.90683010  0.44285671    -0.97200
Zr31       Zr  0.61760850  0.85523520  0.40732581     1.88900
O32         O  0.51654381  0.79581135  0.36012771    -0.73800
O33         O  0.56309671  0.71579016  0.44674411    -0.53100
O34         O  0.56167714  0.82187622  0.44129271    -0.97700
O35         O  0.62847291  0.93899478  0.40315123    -0.55000
O36         O  0.53679593  0.84013849  0.39457232    -0.74300
C37         C  0.50798853  0.81965362  0.37657193     0.98000
O38         O  0.51576488  0.72022171  0.32278744    -0.63100
O39         O  0.76342898  0.92725737  0.31905840    -0.57900
O40         O  0.59751631  0.78847134  0.31189483    -0.94600
O41         O  0.67347172  0.85988000  0.31072444    -0.93000
O42         O  0.75092556  0.78423184  0.32013891    -0.93400
O43         O  0.66195228  0.69757117  0.32337212    -0.92200
C44         C  0.63499927  0.82328027  0.30045499     1.16900
H45         H  0.77951253  0.85928659  0.36124215     0.32800
H46         H  0.59807034  0.68627331  0.36396279     0.43700
H47         H  0.60512649  0.87168718  0.35723358     0.37200
H48         H  0.65776303  0.81442331  0.44089681     0.33700
H49         H  0.71647648  0.67143592  0.35290133     0.25500
H50         H  0.54879992  0.68015955  0.45135292     0.31400
H51         H  0.55071209  0.84660173  0.44434064     0.37300
H52         H  0.75368751  0.81707926  0.31667818     0.31800
H53         H  0.77232476  0.96292733  0.31994596     0.30600
H54         H  0.71486510  0.98295800  0.35320423     0.32300
H55         H  0.59952978  0.93728357  0.41161539     0.31300
H56         H  0.63530218  0.70424284  0.31772496     0.35300
H57         H  0.51569904  0.68821615  0.32075367     0.28000
H58         H  0.80309194  0.89049507  0.45036316     0.32300
H59         H  0.68770628  0.91215528  0.44404790     0.35100
H60         H  0.79446732  0.92720844  0.32375298     0.27700
H61         H  0.48244227  0.71059885  0.32943983     0.40600
H62         H  0.64255210  0.65092201  0.40936174     0.30600
H63         H  0.71480906  0.68078625  0.38018831     0.38300
H64         H  0.62163882  0.94173088  0.38612025     0.30100
H65         H  0.58740743  0.73494967  0.45963420     0.30200
H66         H  0.75014742  0.88320647  0.45667567     0.30400
Zr67       Zr  0.85725772  0.73714632  0.58928522     2.17500
O68         O  0.91442940  0.77690448  0.55611529    -0.51900
O69         O  0.84464765  0.80687455  0.59840778    -0.75100
O70         O  0.81143786  0.73480732  0.55314142    -0.81900
O71         O  0.96644740  0.77454958  0.63269624    -0.83600
O72         O  0.74083485  0.65819766  0.55024240    -0.79300
O73         O  0.94365271  0.79937029  0.59897828    -0.90900
O74         O  0.78907279  0.78214249  0.62885908    -0.76900
O75         O  0.76981192  0.69226481  0.59770841    -0.86400
O76         O  0.85145498  0.74093150  0.63148885    -0.86100
O77         O  0.82605405  0.65368623  0.57432986    -0.72800
O78         O  0.90135202  0.69861297  0.60592134    -0.84900
Zr79       Zr  0.77646325  0.57261569  0.64305174     2.26400
Zr80       Zr  0.73861159  0.60799508  0.58427808     2.06300
Zr81       Zr  0.89360359  0.70048013  0.64817445     2.10000
Zr82       Zr  0.76379592  0.69614518  0.63955483     1.78800
O83         O  0.96153189  0.68496947  0.65882594    -0.93700
O84         O  0.68714719  0.69519053  0.62739981    -0.41600
O85         O  0.80608077  0.65648243  0.65653666    -0.78200
O86         O  0.73067246  0.61060955  0.62665043    -0.96900
O87         O  0.78208320  0.56876818  0.60086706    -0.90200
O88         O  0.86398862  0.61665652  0.63447351    -0.93000
C89         C  0.81882582  0.81479956  0.61382754     1.00700
C90         C  0.97565631  0.80473760  0.61520285     1.13700
C91         C  0.77041275  0.70292488  0.54259335     1.04400
O92         O  0.65680704  0.60156368  0.58002822    -0.95200
O93         O  0.67254812  0.52380619  0.59510426    -0.90900
O94         O  0.69645129  0.50413295  0.62994522    -0.84100
C95         C  0.66591704  0.49398526  0.61251651     1.11100
O96         O  0.93168239  0.65156353  0.56056345    -0.97200
Zr97       Zr  0.86909483  0.61495518  0.59194284     1.88900
O98         O  0.80418853  0.51161600  0.63783751    -0.73800
O99         O  0.72838472  0.55691472  0.54920682    -0.53100
O100        O  0.84312418  0.57060064  0.55392189    -0.97700
O101        O  0.95020156  0.62361931  0.60219284    -0.55000
O102        O  0.84737802  0.53141715  0.60320551    -0.74300
C103        C  0.82635795  0.50239975  0.62093573     0.98000
O104        O  0.72298502  0.51893612  0.67507197    -0.63100
O105        O  0.92431577  0.76711014  0.67813387    -0.57900
O106        O  0.79891954  0.58849679  0.68526187    -0.94600
O107        O  0.86738531  0.66655941  0.68796206    -0.93000
O108        O  0.78873709  0.73704598  0.67838019    -0.93400
O109        O  0.69516081  0.65631227  0.66781371    -0.92200
C110        C  0.83208672  0.62621790  0.69734258     1.16900
H111        H  0.86755519  0.77506404  0.63733346     0.32800
H112        H  0.69575892  0.59143396  0.63113789     0.43700
H113        H  0.88132348  0.60186654  0.64243558     0.37200
H114        H  0.83007495  0.65474705  0.55722923     0.33700
H115        H  0.68631735  0.72138585  0.63730849     0.25500
H116        H  0.69956901  0.55521918  0.54041395     0.31400
H117        H  0.81429452  0.53714544  0.55775822     0.37300
H118        H  0.76472286  0.74876275  0.68164739     0.31800
H119        H  0.95795872  0.77308978  0.68280684     0.30600
H120        H  0.98905921  0.71775592  0.66463605     0.32300
H121        H  0.94413628  0.60242740  0.61644573     0.31300
H122        H  0.70129195  0.63164807  0.67629068     0.35300
H123        H  0.69037191  0.51780696  0.67343305     0.28000
H124        H  0.90696508  0.80263977  0.54997832     0.32300
H125        H  0.94041594  0.62565225  0.55630494     0.35100
H126        H  0.93096710  0.79789197  0.66950747     0.27700
H127        H  0.71581549  0.48447114  0.67138649     0.40600
H128        H  0.64722965  0.60477320  0.59646128     0.30600
H129        H  0.69383129  0.70923038  0.61108361     0.38300
H130        H  0.97064221  0.65852618  0.60815335     0.30100
H131        H  0.75780944  0.57815588  0.53913677     0.30200
H132        H  0.90262919  0.75092228  0.54346162     0.30400
Zr133      Zr  0.13393751  0.88008499  0.40567547     2.17500
O134        O  0.07397909  0.86538042  0.43720803    -0.51900
O135        O  0.15213659  0.96461311  0.39814406    -0.75100
O136        O  0.17683457  0.92019285  0.44282277    -0.81900
O137        O  0.02743251  0.81289288  0.36018751    -0.83600
O138        O  0.24737127  0.91446848  0.44543597    -0.79300
O139        O  0.04823270  0.85666583  0.39505836    -0.90900
O140        O  0.20704393  0.99586473  0.36765201    -0.76900
O141        O  0.22164970  0.92208609  0.39798597    -0.86400
O142        O  0.14172999  0.89176503  0.36356363    -0.86100
O143        O  0.16249954  0.82598973  0.42106423    -0.72800
O144        O  0.08893984  0.79865078  0.38787534    -0.84900
Zr145      Zr  0.21344654  0.79447713  0.35333033     2.26400
Zr146      Zr  0.25025380  0.86704482  0.41156363     2.06300
Zr147      Zr  0.09988292  0.81000303  0.34572969     2.10000
Zr148      Zr  0.22952905  0.93351535  0.35621907     1.78800
O149        O  0.03344649  0.72680751  0.33352581    -0.93700
O150        O  0.30785638  0.00554083  0.37002532    -0.41600
O151        O  0.18761829  0.85138605  0.33931914    -0.78200
O152        O  0.26019609  0.87908211  0.36931322    -0.96900
O153        O  0.20511028  0.78383801  0.39531085    -0.90200
O154        O  0.12538885  0.75289779  0.36024198    -0.93000
C155        C  0.17873231  0.99935867  0.38327751     1.00700
C156        C  0.01708556  0.83157257  0.37821607     1.13700
C157        C  0.21769821  0.92907480  0.45332131     1.04400
O158        O  0.33231309  0.93993603  0.41983877    -0.95200
O159        O  0.31950558  0.85443473  0.40032696    -0.90900
O160        O  0.29739610  0.81535495  0.36451603    -0.84100
C161        C  0.32810624  0.83513660  0.38195462     1.11100
O162        O  0.05598902  0.72604467  0.43399167    -0.97200
Zr163      Zr  0.11722303  0.74482564  0.40269785     1.88900
O164        O  0.18479137  0.70540107  0.36063283    -0.73800
O165        O  0.25656371  0.82147288  0.44561985    -0.53100
O166        O  0.13759543  0.71576094  0.43919107    -0.97700
O167        O  0.03315614  0.67675079  0.39251657    -0.55000
O168        O  0.13083592  0.67787962  0.39155299    -0.74300
C169        C  0.15670335  0.67156920  0.37572787     0.98000
O170        O  0.25746177  0.77578003  0.32251760    -0.63100
O171        O  0.07179928  0.84719766  0.31522582    -0.57900
O172        O  0.19660830  0.79323195  0.31081848    -0.94600
O173        O  0.13287800  0.80965186  0.30629221    -0.93000
O174        O  0.20731444  0.95645516  0.31838072    -0.93400
O175        O  0.29174144  0.96065535  0.32465204    -0.92200
C176        C  0.16743745  0.80222169  0.29794619     1.16900
H177        H  0.12655469  0.91071366  0.35786235     0.32800
H178        H  0.29525510  0.89530311  0.36508030     0.43700
H179        H  0.10796118  0.72088077  0.35211435     0.37200
H180        H  0.15798157  0.82252646  0.43813226     0.33700
H181        H  0.31038023  0.03438891  0.36102545     0.25500
H182        H  0.27057443  0.80121506  0.43911472     0.31400
H183        H  0.17259131  0.72330269  0.43704423     0.37300
H184        H  0.17280762  0.92888194  0.31485406     0.31800
H185        H  0.03977880  0.81906120  0.30905643     0.30600
H186        H  0.02744256  0.73041362  0.31647568     0.32300
H187        H  0.03762984  0.65956068  0.37864128     0.31300
H188        H  0.31229167  0.94505565  0.32846893     0.35300
H189        H  0.28860847  0.80788435  0.31919677     0.28000
H190        H  0.08213249  0.89914042  0.44284583     0.32300
H191        H  0.05236747  0.75620608  0.43482822     0.35100
H192        H  0.06216217  0.86920761  0.32376002     0.27700
H193        H  0.26902616  0.75427476  0.33006937     0.40600
H194        H  0.34374597  0.95686469  0.40425416     0.30600
H195        H  0.30126202  0.01140087  0.38662330     0.38300
H196        H  0.01563665  0.69373390  0.38593541     0.30100
H197        H  0.28410890  0.84757192  0.45548435     0.30200
H198        H  0.08339109  0.85067815  0.45058264     0.30400
Zr199      Zr  0.24948937  0.09385770  0.58795831     2.17500
O200        O  0.20679137  0.10510218  0.55377835    -0.51900
O201        O  0.18375687  0.00974554  0.59741758    -0.75100
O202        O  0.25136896  0.04991797  0.55249090    -0.81900
O203        O  0.21331160  0.16799534  0.62913001    -0.83600
O204        O  0.32841030  0.05731785  0.54947188    -0.79300
O205        O  0.18502151  0.11480022  0.59740898    -0.90900
O206        O  0.20960661  0.98040116  0.62823706    -0.76900
O207        O  0.29575371  0.05318726  0.59736689    -0.86400
O208        O  0.24726454  0.08689846  0.63026152    -0.86100
O209        O  0.33193064  0.14626594  0.57209385    -0.72800
O210        O  0.28684522  0.17765730  0.60311360    -0.84900
Zr211      Zr  0.41542163  0.18436436  0.64065778     2.26400
Zr212      Zr  0.37915862  0.10671236  0.58330271     2.06300
Zr213      Zr  0.28748801  0.17103073  0.64555534     2.10000
Zr214      Zr  0.29365791  0.04608220  0.63936284     1.78800
O215        O  0.30480138  0.25565594  0.65487135    -0.93700
O216        O  0.30270283  0.97421020  0.62884836    -0.41600
O217        O  0.33285892  0.12939246  0.65496021    -0.78200
O218        O  0.37840603  0.09916309  0.62584935    -0.96900
O219        O  0.41656967  0.19037496  0.59838644    -0.90200
O220        O  0.37005430  0.22599706  0.63085814    -0.93000
C221        C  0.17686704  0.97596784  0.61272139     1.00700
C222        C  0.18107824  0.14386135  0.61259473     1.13700
C223        C  0.28330536  0.04144425  0.54203377     1.04400
O224        O  0.38615964  0.03156995  0.58005483    -0.95200
O225        O  0.46425290  0.12789313  0.59455460    -0.90900
O226        O  0.48078273  0.16621976  0.63061065    -0.84100
C227        C  0.49270179  0.14830906  0.61285754     1.11100
O228        O  0.33010490  0.24011107  0.55230173    -0.97200
Zr229      Zr  0.36923074  0.22944288  0.58811675     1.88900
O230        O  0.47330754  0.27348703  0.63284441    -0.73800
O231        O  0.43122216  0.14771030  0.54870652    -0.53100
O232        O  0.42709464  0.25877654  0.55465311    -0.97700
O233        O  0.34813981  0.29487088  0.59509109    -0.55000
O234        O  0.44923660  0.29811555  0.59958906    -0.74300
C235        C  0.47975987  0.30584209  0.61671179     0.98000
O236        O  0.48633450  0.20829508  0.66777223    -0.63100
O237        O  0.22014102  0.13905895  0.67475304    -0.57900
O238        O  0.39497750  0.18267348  0.68317169    -0.94600
O239        O  0.32027677  0.17925974  0.68602824    -0.93000
O240        O  0.24866812  0.02869741  0.67688248    -0.93400
O241        O  0.33102907  0.02226259  0.67144944    -0.92200
C242        C  0.35918239  0.18111993  0.69560646     1.16900
H243        H  0.21331795  0.06822147  0.63607265     0.32800
H244        H  0.39782072  0.08394836  0.63082244     0.43700
H245        H  0.38452573  0.25873768  0.63823916     0.37200
H246        H  0.33011856  0.14780458  0.55491934     0.33700
H247        H  0.27794898  0.94637699  0.63885537     0.25500
H248        H  0.43652145  0.12161402  0.54122959     0.31400
H249        H  0.45362954  0.25093133  0.55901480     0.37300
H250        H  0.21794509  0.99559929  0.67460356     0.31800
H251        H  0.21284436  0.16661934  0.67721451     0.30600
H252        H  0.30514039  0.25722887  0.67249906     0.32300
H253        H  0.37266531  0.32391683  0.58562936     0.31300
H254        H  0.35880041  0.05458208  0.67756650     0.35300
H255        H  0.49017145  0.23749841  0.67696448     0.28000
H256        H  0.18216215  0.07090732  0.54806031     0.32300
H257        H  0.35272236  0.27498157  0.54691753     0.35100
H258        H  0.18995481  0.11220849  0.66658232     0.27700
H259        H  0.47539179  0.18073284  0.67948778     0.40600
H260        H  0.39096567  0.02370681  0.59663597     0.30600
H261        H  0.28893855  0.96497333  0.61245156     0.38300
H262        H  0.35785773  0.30538708  0.61186699     0.30100
H263        H  0.40902399  0.15231572  0.53740892     0.30200
H264        H  0.23230244  0.11984412  0.54107645     0.30400
Zr265      Zr  0.10178091  0.24042431  0.40793448     2.17500
O266        O  0.11600921  0.19800484  0.44128810    -0.51900
O267        O  0.01961831  0.17148788  0.39881814    -0.75100
O268        O  0.05921037  0.24218258  0.44395378    -0.81900
O269        O  0.16540727  0.19855024  0.36311618    -0.83600
O270        O  0.06664331  0.31907692  0.44759999    -0.79300
O271        O  0.12577995  0.17837228  0.39884233    -0.90900
O272        O  0.98506259  0.19607498  0.36976443    -0.76900
O273        O  0.05882718  0.28514970  0.40006925    -0.86400
O274        O  0.08867305  0.23591092  0.36581775    -0.86100
O275        O  0.15480159  0.32340460  0.42327405    -0.72800
O276        O  0.18316133  0.27736344  0.39040261    -0.84900
Zr277      Zr  0.18338098  0.40353802  0.35430303     2.26400
Zr278      Zr  0.11319656  0.36927557  0.41344478     2.06300
Zr279      Zr  0.16985743  0.27479339  0.34829082     2.10000
Zr280      Zr  0.04621236  0.28131822  0.35832828     1.78800
O281        O  0.25065539  0.28541973  0.33671134    -0.93700
O282        O  0.97632009  0.28855779  0.37369931    -0.41600
O283        O  0.12723346  0.31992973  0.34043105    -0.78200
O284        O  0.10017547  0.36639239  0.37113888    -0.96900
O285        O  0.19521123  0.40783563  0.39638234    -0.90200
O286        O  0.22573258  0.35815178  0.36245371    -0.93000
C287        C  0.98410784  0.16340316  0.38429663     1.00700
C288        C  0.14803684  0.17040947  0.38157387     1.13700
C289        C  0.05112201  0.27402045  0.45488620     1.04400
O290        O  0.04104079  0.37954163  0.42095722    -0.95200
O291        O  0.12725536  0.45153635  0.40202243    -0.90900
O292        O  0.16241929  0.46675715  0.36533126    -0.84100
C293        C  0.14473572  0.47844413  0.38323377     1.11100
O294        O  0.25399811  0.31627826  0.43556729    -0.97200
Zr295      Zr  0.23519279  0.36050979  0.40492670     1.88900
O296        O  0.27326791  0.46416026  0.36020603    -0.73800
O297        O  0.16166463  0.42095797  0.44721379    -0.53100
O298        O  0.25724923  0.40889218  0.44178584    -0.97700
O299        O  0.30959337  0.35350911  0.39840649    -0.55000
O300        O  0.30026538  0.44167618  0.39307124    -0.74300
C301        C  0.30695050  0.47165863  0.37597037     0.98000
O302        O  0.20210232  0.46562058  0.32300914    -0.63100
O303        O  0.12630024  0.20959003  0.31809265    -0.57900
O304        O  0.18004248  0.38253754  0.31210445    -0.94600
O305        O  0.18490787  0.31156833  0.30874840    -0.93000
O306        O  0.01631854  0.23575439  0.32075242    -0.93400
O307        O  0.02170695  0.32308615  0.32872592    -0.92200
C308        C  0.18314262  0.34903290  0.29978783     1.16900
H309        H  0.06979334  0.20170588  0.36010749     0.32800
H310        H  0.08350864  0.38477505  0.36678698     0.43700
H311        H  0.25755257  0.37248910  0.35438384     0.37200
H312        H  0.15855188  0.32245875  0.44035134     0.33700
H313        H  0.94727827  0.26554604  0.36359297     0.25500
H314        H  0.18459545  0.45435422  0.44030343     0.31400
H315        H  0.25981413  0.44120375  0.43730194     0.37300
H316        H  0.98060802  0.22659625  0.31954802     0.31800
H317        H  0.15236371  0.20324647  0.31150533     0.30600
H318        H  0.24219268  0.25677091  0.32590594     0.32300
H319        H  0.33686627  0.38214572  0.40727910     0.31300
H320        H  0.05386193  0.35159757  0.32313887     0.35300
H321        H  0.16971528  0.46360814  0.31908503     0.28000
H322        H  0.08226175  0.17233810  0.44681463     0.32300
H323        H  0.22340794  0.28270669  0.43639196     0.35100
H324        H  0.10355790  0.17853848  0.32688404     0.27700
H325        H  0.22259711  0.49894400  0.33062266     0.40600
H326        H  0.01931823  0.36522888  0.40668595     0.30600
H327        H  0.96894926  0.27204628  0.38947941     0.38300
H328        H  0.31798927  0.36199685  0.38141539     0.30100
H329        H  0.13735200  0.42599692  0.45653453     0.30200
H330        H  0.13015563  0.22314305  0.45432213     0.30400
Zr331      Zr  0.89100286  0.13166184  0.58990286     2.17500
O332        O  0.87299888  0.07624889  0.55567319    -0.51900
O333        O  0.97386017  0.14541684  0.59806736    -0.75100
O334        O  0.93260088  0.17791610  0.55387763    -0.81900
O335        O  0.82818489  0.02521546  0.63350278    -0.83600
O336        O  0.92673438  0.24857841  0.55239692    -0.79300
O337        O  0.87109473  0.04657711  0.59870891    -0.90900
O338        O  0.00619413  0.20128487  0.62859273    -0.76900
O339        O  0.93425693  0.21894024  0.59910064    -0.86400
O340        O  0.90201783  0.13719308  0.63221334    -0.86100
O341        O  0.83793111  0.16234897  0.57572927    -0.72800
O342        O  0.80901704  0.08558027  0.60690364    -0.84900
Zr343      Zr  0.80732771  0.20997072  0.64512531     2.26400
Zr344      Zr  0.88013680  0.24946944  0.58687793     2.06300
Zr345      Zr  0.81993862  0.09419210  0.64920818     2.10000
Zr346      Zr  0.94523166  0.22480607  0.64091568     1.78800
O347        O  0.73441063  0.02860564  0.65809735    -0.93700
O348        O  0.01762275  0.30347481  0.62821232    -0.41600
O349        O  0.86335758  0.18173051  0.65771908    -0.78200
O350        O  0.89136813  0.25711345  0.62927192    -0.96900
O351        O  0.79734324  0.20409188  0.60293600    -0.90200
O352        O  0.76422103  0.12242034  0.63594554    -0.93000
C353        C  0.00850103  0.17158531  0.61326792     1.00700
C354        C  0.84721656  0.01537715  0.61545294     1.13700
C355        C  0.94146059  0.21933342  0.54408672     1.04400
O356        O  0.95645873  0.33115940  0.58476633    -0.95200
O357        O  0.86351167  0.31560246  0.59837981    -0.90900
O358        O  0.82484410  0.29355890  0.63417753    -0.84100
C359        C  0.84321541  0.32357873  0.61647345     1.11100
O360        O  0.73564018  0.05527868  0.56156135    -0.97200
Zr361      Zr  0.75669437  0.11693198  0.59334617     1.88900
O362        O  0.71845659  0.18298569  0.63768993    -0.73800
O363        O  0.84061843  0.26315413  0.55217166    -0.53100
O364        O  0.73206934  0.14061133  0.55640104    -0.97700
O365        O  0.68472823  0.03526295  0.60308413    -0.55000
O366        O  0.69363681  0.13661400  0.60378671    -0.74300
C367        C  0.68652800  0.15980999  0.62078654     0.98000
O368        O  0.79056384  0.25170579  0.67784626    -0.63100
O369        O  0.84390095  0.05355256  0.67975780    -0.57900
O370        O  0.81041871  0.19091116  0.68743737    -0.94600
O371        O  0.82106379  0.12348794  0.68974764    -0.93000
O372        O  0.96916261  0.20060603  0.67787459    -0.93400
O373        O  0.97502219  0.29037435  0.67128666    -0.92200
C374        C  0.81743923  0.15928137  0.69951161     1.16900
H375        H  0.92055712  0.12141749  0.63773018     0.32800
H376        H  0.90733085  0.29186684  0.63420934     0.43700
H377        H  0.73209987  0.10519653  0.64376909     0.37200
H378        H  0.83449867  0.15891129  0.55858039     0.33700
H379        H  0.04680612  0.30387604  0.63597670     0.25500
H380        H  0.86756542  0.29432585  0.54490185     0.31400
H381        H  0.73730935  0.17458242  0.55951900     0.37300
H382        H  0.00538675  0.22511405  0.67995052     0.31800
H383        H  0.81756682  0.01760914  0.67939908     0.30600
H384        H  0.72737672  0.03796684  0.67389056     0.32300
H385        H  0.66986192  0.04089549  0.61750571     0.31300
H386        H  0.94581918  0.28012347  0.68182797     0.35300
H387        H  0.82136945  0.28491394  0.67977624     0.28000
H388        H  0.90597484  0.08547177  0.54869792     0.32300
H389        H  0.69993280  0.04281823  0.55748323     0.35100
H390        H  0.87463863  0.05453849  0.67389266     0.27700
H391        H  0.76485035  0.25926016  0.67171245     0.40600
H392        H  0.96830345  0.33975236  0.60146413     0.30600
H393        H  0.02150780  0.29873742  0.61106808     0.38300
H394        H  0.69955615  0.01498221  0.60867766     0.30100
H395        H  0.83500575  0.23620820  0.54079053     0.30200
H396        H  0.85634648  0.08692067  0.54377966     0.30400
Zr397      Zr  0.15118975  0.24641544  0.08690321     2.17500
O398        O  0.09326295  0.21750360  0.05310404    -0.51900
O399        O  0.16610464  0.17727234  0.09238915    -0.75100
O400        O  0.19609946  0.24725771  0.05103046    -0.81900
O401        O  0.04751205  0.20068102  0.13224358    -0.83600
O402        O  0.26934939  0.32204404  0.05063798    -0.79300
O403        O  0.06840270  0.17858926  0.09741695    -0.90900
O404        O  0.21859287  0.19608266  0.12410641    -0.76900
O405        O  0.23784382  0.28655292  0.09697731    -0.86400
O406        O  0.15526007  0.23866642  0.12905737    -0.86100
O407        O  0.18617809  0.33139539  0.07356115    -0.72800
O408        O  0.10847944  0.28570512  0.10421439    -0.84900
Zr409      Zr  0.23525975  0.40617767  0.14404199     2.26400
Zr410      Zr  0.27275094  0.37189552  0.08515285     2.06300
Zr411      Zr  0.11543075  0.28047295  0.14649167     2.10000
Zr412      Zr  0.24215673  0.27929698  0.13875202     1.78800
O413        O  0.04759921  0.29867494  0.15149941    -0.93700
O414        O  0.32193131  0.28709331  0.12723753    -0.41600
O415        O  0.20250966  0.32095179  0.15619817    -0.78200
O416        O  0.27872467  0.36595506  0.12761050    -0.96900
O417        O  0.23167975  0.41306492  0.10199454    -0.90200
O418        O  0.14824888  0.36563985  0.13425142    -0.93000
C419        C  0.19119303  0.16672384  0.10722687     1.00700
C420        C  0.03800384  0.17064081  0.11459731     1.13700
C421        C  0.23849080  0.27867106  0.04168052     1.04400
O422        O  0.35321582  0.37610147  0.07997550    -0.95200
O423        O  0.34232335  0.45234718  0.09794235    -0.90900
O424        O  0.32039263  0.46817197  0.13406994    -0.84100
C425        C  0.35107831  0.47911181  0.11680611     1.11100
O426        O  0.08845019  0.33593247  0.05755940    -0.97200
Zr427      Zr  0.14490767  0.37109792  0.09177791     1.88900
O428        O  0.20942791  0.46975574  0.13923153    -0.73800
O429        O  0.28229099  0.42618087  0.05163976    -0.53100
O430        O  0.17615735  0.43121728  0.05909826    -0.97700
O431        O  0.06401465  0.36333785  0.10103956    -0.55000
O432        O  0.16481406  0.45285337  0.10487887    -0.74300
C433        C  0.18603798  0.48027262  0.12315706     0.98000
O434        O  0.28087521  0.46109607  0.17765487    -0.63100
O435        O  0.07831833  0.21930139  0.17855635    -0.57900
O436        O  0.21338021  0.38491613  0.18567186    -0.94600
O437        O  0.13911995  0.31142172  0.18723012    -0.93000
O438        O  0.21303317  0.23018129  0.17519613    -0.93400
O439        O  0.30469708  0.30628259  0.17055011    -0.92200
C440        C  0.17705289  0.34918460  0.19709364     1.16900
H441        H  0.13841603  0.20392622  0.13395757     0.32800
H442        H  0.31349111  0.38285827  0.13270090     0.43700
H443        H  0.13172318  0.38093493  0.14239284     0.37200
H444        H  0.18322590  0.33217573  0.05641387     0.33700
H445        H  0.31968788  0.25524138  0.13235987     0.25500
H446        H  0.27533754  0.45182575  0.05831883     0.31400
H447        H  0.17710699  0.41216652  0.04509509     0.37300
H448        H  0.17891752  0.22493035  0.17767297     0.31800
H449        H  0.04241329  0.20964132  0.17878728     0.30600
H450        H  0.05196058  0.31191839  0.16795506     0.32300
H451        H  0.06966399  0.38324701  0.11577264     0.31300
H452        H  0.31855921  0.34300239  0.17184600     0.35300
H453        H  0.31140721  0.45842366  0.17986613     0.28000
H454        H  0.09303879  0.18709220  0.04721070     0.32300
H455        H  0.07852759  0.36105237  0.05342968     0.35100
H456        H  0.07857631  0.18888908  0.17300595     0.27700
H457        H  0.29325748  0.49581541  0.17200634     0.40600
H458        H  0.36618073  0.37801279  0.09636840     0.30600
H459        H  0.32069200  0.28512227  0.10961842     0.38300
H460        H  0.04263023  0.32799721  0.10606336     0.30100
H461        H  0.31880521  0.44474353  0.04846433     0.30200
H462        H  0.11016459  0.24302990  0.04054721     0.30400
Zr463      Zr  0.26466837  0.14105841  0.90740453     2.17500
O464        O  0.22415480  0.08835481  0.94197678    -0.51900
O465        O  0.19814011  0.15840892  0.89879703    -0.75100
O466        O  0.27013692  0.18908402  0.94288286    -0.81900
O467        O  0.22085924  0.03216625  0.86426910    -0.83600
O468        O  0.34856527  0.25675767  0.94594295    -0.79300
O469        O  0.19842535  0.05551753  0.89828233    -0.90900
O470        O  0.22005262  0.21015140  0.86687784    -0.76900
O471        O  0.31087635  0.22806494  0.89791237    -0.86400
O472        O  0.25936819  0.14549560  0.86519625    -0.86100
O473        O  0.34814848  0.17004006  0.92205455    -0.72800
O474        O  0.29959047  0.09366050  0.89101381    -0.84900
Zr475      Zr  0.42717388  0.21598623  0.85283016     2.26400
Zr476      Zr  0.39514419  0.25696326  0.91097158     2.06300
Zr477      Zr  0.29771137  0.10136967  0.84873990     2.10000
Zr478      Zr  0.30528341  0.23253693  0.85593272     1.78800
O479        O  0.31463728  0.03357840  0.84058097    -0.93700
O480        O  0.31163744  0.31185264  0.86762465    -0.41600
O481        O  0.34347749  0.18847581  0.83956885    -0.78200
O482        O  0.39099432  0.26415180  0.86849633    -0.96900
O483        O  0.43128221  0.21035468  0.89502051    -0.90200
O484        O  0.38147773  0.12880335  0.86212378    -0.93000
C485        C  0.18911612  0.18327300  0.88318852     1.00700
C486        C  0.19129484  0.02328717  0.88191861     1.13700
C487        C  0.30372586  0.22878442  0.95366539     1.04400
O488        O  0.40563578  0.34064039  0.91403264    -0.95200
O489        O  0.47994916  0.31970010  0.89948295    -0.90900
O490        O  0.48984279  0.30196265  0.86133282    -0.84100
C491        C  0.50448559  0.32985134  0.87989689     1.11100
O492        O  0.33687670  0.05712855  0.93360462    -0.97200
Zr493      Zr  0.38311878  0.12350129  0.90466282     1.88900
O494        O  0.48980745  0.19133270  0.86208942    -0.73800
O495        O  0.44863710  0.26855161  0.94536149    -0.53100
O496        O  0.42787309  0.14548079  0.94271322    -0.97700
O497        O  0.37706278  0.04388250  0.89372902    -0.55000
O498        O  0.46683521  0.14406823  0.89555758    -0.74300
C499        C  0.49775305  0.16767287  0.87888877     0.98000
O500        O  0.48901284  0.25466724  0.82115501    -0.63100
O501        O  0.23212820  0.06662125  0.81823712    -0.57900
O502        O  0.40707289  0.19276237  0.81065430    -0.94600
O503        O  0.32751045  0.12659750  0.80828518    -0.93000
O504        O  0.26261960  0.20618606  0.81748512    -0.93400
O505        O  0.34013599  0.29607117  0.82480468    -0.92200
C506        C  0.36829148  0.16063728  0.79872516     1.16900
H507        H  0.22496171  0.12981440  0.85967503     0.32800
H508        H  0.40954673  0.29897418  0.86375326     0.43700
H509        H  0.39593099  0.11109667  0.85432108     0.37200
H510        H  0.34775987  0.16669930  0.93920875     0.33700
H511        H  0.28880738  0.31607195  0.85657481     0.25500
H512        H  0.45486984  0.30041702  0.95274109     0.31400
H513        H  0.44752410  0.12802932  0.94270259     0.37300
H514        H  0.24693057  0.16914644  0.81737109     0.31800
H515        H  0.22104317  0.03037606  0.81747561     0.30600
H516        H  0.32101260  0.03564069  0.82323727     0.32300
H517        H  0.40223167  0.05192900  0.88108970     0.31300
H518        H  0.37130666  0.29676299  0.81989653     0.35300
H519        H  0.48572719  0.28322824  0.81527823     0.28000
H520        H  0.19871920  0.09699875  0.94716902     0.32300
H521        H  0.36111113  0.04770916  0.93994401     0.35100
H522        H  0.20336822  0.06811732  0.82510644     0.27700
H523        H  0.52253391  0.27018313  0.82890062     0.40600
H524        H  0.37113825  0.33517567  0.91292819     0.30600
H525        H  0.29466976  0.30499199  0.88323375     0.38300
H526        H  0.34424271  0.02475611  0.88544843     0.30100
H527        H  0.42679145  0.24213995  0.95676295     0.30200
H528        H  0.24983031  0.10091544  0.95484225     0.30400
Zr529      Zr  0.12560480  0.85192679  0.08626576     2.17500
O530        O  0.13870454  0.90238549  0.05063747    -0.51900
O531        O  0.04341486  0.84021039  0.09454217    -0.75100
O532        O  0.08018321  0.80188017  0.05178477    -0.81900
O533        O  0.19602840  0.96413512  0.12718549    -0.83600
O534        O  0.08810501  0.73241600  0.05047695    -0.79300
O535        O  0.15141317  0.93961258  0.09254673    -0.90900
O536        O  0.01333979  0.78860244  0.12659430    -0.76900
O537        O  0.08318553  0.76552240  0.09702463    -0.86400
O538        O  0.11655177  0.85095443  0.12845574    -0.86100
O539        O  0.17818105  0.82009762  0.07281133    -0.72800
O540        O  0.20855136  0.89827142  0.10259640    -0.84900
Zr541      Zr  0.21159544  0.77847221  0.14330582     2.26400
Zr542      Zr  0.13657477  0.73386612  0.08527953     2.06300
Zr543      Zr  0.19955895  0.89455070  0.14500053     2.10000
Zr544      Zr  0.07419312  0.76436002  0.13888140     1.78800
O545        O  0.28306959  0.96300162  0.15539729    -0.93700
O546        O  0.99808479  0.68555510  0.12932227    -0.41600
O547        O  0.15688015  0.80817496  0.15512865    -0.78200
O548        O  0.12677400  0.73049395  0.12768536    -0.96900
O549        O  0.22011057  0.77992932  0.10113399    -0.90200
O550        O  0.25463178  0.86505542  0.13266069    -0.93000
C551        C  0.01006149  0.81633232  0.11039310     1.00700
C552        C  0.17718986  0.97261774  0.10856922     1.13700
C553        C  0.07175841  0.76051599  0.04219583     1.04400
O554        O  0.06028790  0.65225090  0.08246332    -0.95200
O555        O  0.15472827  0.66952378  0.09940553    -0.90900
O556        O  0.19062296  0.69271821  0.13602824    -0.84100
C557        C  0.17258366  0.66159747  0.11865339     1.11100
O558        O  0.28362134  0.92303006  0.05619089    -0.97200
Zr559      Zr  0.26066380  0.86604246  0.09005520     1.88900
O560        O  0.29957887  0.80356439  0.13641308    -0.73800
O561        O  0.17472309  0.71707460  0.05123680    -0.53100
O562        O  0.28414259  0.83468531  0.05542420    -0.97700
O563        O  0.32969271  0.95031958  0.09900447    -0.55000
O564        O  0.32569896  0.84995383  0.10266640    -0.74300
C565        C  0.33210318  0.82693934  0.12006091     0.98000
O566        O  0.23163944  0.74120486  0.17699588    -0.63100
O567        O  0.16575073  0.92960225  0.17348734    -0.57900
O568        O  0.21086552  0.80181630  0.18492756    -0.94600
O569        O  0.20306638  0.87092515  0.18614914    -0.93000
O570        O  0.06053252  0.79295194  0.17708966    -0.93400
O571        O  0.04404603  0.69973564  0.16945197    -0.92200
C572        C  0.20619970  0.83534872  0.19647560     1.16900
H573        H  0.09872755  0.86771160  0.13345489     0.32800
H574        H  0.11055442  0.69618146  0.13315898     0.43700
H575        H  0.28701555  0.88334497  0.14043389     0.37200
H576        H  0.18066855  0.82211741  0.05562830     0.33700
H577        H  0.97072977  0.68792685  0.13728147     0.25500
H578        H  0.14740170  0.68539361  0.04432537     0.31400
H579        H  0.27896171  0.80150421  0.06031415     0.37300
H580        H  0.08696385  0.82877427  0.17816507     0.31800
H581        H  0.19344923  0.96422836  0.17666309     0.30600
H582        H  0.28046396  0.97073964  0.17227539     0.32300
H583        H  0.34858357  0.94606346  0.11227239     0.31300
H584        H  0.07488738  0.70479333  0.17760186     0.35300
H585        H  0.19960800  0.71095468  0.18139395     0.28000
H586        H  0.10483005  0.89221279  0.04424878     0.32300
H587        H  0.31741078  0.93007354  0.05132303     0.35100
H588        H  0.14013044  0.93384464  0.16470989     0.27700
H589        H  0.25265914  0.72801126  0.17062102     0.40600
H590        H  0.04684735  0.64510161  0.09885512     0.30600
H591        H  0.99220502  0.68771711  0.11210663     0.38300
H592        H  0.31345149  0.96781913  0.10629181     0.30100
H593        H  0.18006077  0.74311238  0.03938661     0.30200
H594        H  0.15375853  0.88999404  0.03883163     0.30400
Zr595      Zr  0.90456475  0.74323086  0.90836927     2.17500
O596        O  0.89315569  0.78633751  0.94216832    -0.51900
O597        O  0.98719420  0.81228875  0.89902620    -0.75100
O598        O  0.94724011  0.73835270  0.94400827    -0.81900
O599        O  0.83430063  0.78446042  0.86709811    -0.83600
O600        O  0.94142004  0.66189996  0.94578169    -0.79300
O601        O  0.88146309  0.80674105  0.90099169    -0.90900
O602        O  0.01658820  0.78822804  0.86776322    -0.76900
O603        O  0.94655260  0.69844618  0.89858854    -0.86400
O604        O  0.91245472  0.74815764  0.86607509    -0.86100
O605        O  0.85203611  0.65939821  0.92279011    -0.72800
O606        O  0.82098378  0.70566332  0.89261173    -0.84900
Zr607      Zr  0.81677130  0.58092054  0.85341219     2.26400
Zr608      Zr  0.89290860  0.61383513  0.91127635     2.06300
Zr609      Zr  0.82883741  0.70912951  0.85029161     2.10000
Zr610      Zr  0.95427718  0.70297400  0.85661847     1.78800
O611        O  0.74417192  0.69238644  0.84163233    -0.93700
O612        O  0.02924628  0.69929134  0.86741337    -0.41600
O613        O  0.87137546  0.66504043  0.84049045    -0.78200
O614        O  0.90135622  0.61741162  0.86884105    -0.96900
O615        O  0.80937479  0.57558109  0.89556303    -0.90200
O616        O  0.77420944  0.62501789  0.86344054    -0.93000
C617        C  0.02035762  0.82062955  0.88322999     1.00700
C618        C  0.85541936  0.81360761  0.88505901     1.13700
C619        C  0.95655708  0.70631697  0.95394471     1.04400
O620        O  0.96752300  0.60565475  0.91385191    -0.95200
O621        O  0.87399767  0.53039477  0.89864394    -0.90900
O622        O  0.83085188  0.51273799  0.86360485    -0.84100
C623        C  0.85125567  0.50173649  0.88069754     1.11100
O624        O  0.75104372  0.66555617  0.93690068    -0.97200
Zr625      Zr  0.76926770  0.62157903  0.90597808     1.88900
O626        O  0.72839681  0.51923442  0.85976050    -0.73800
O627        O  0.85212448  0.56310999  0.94623807    -0.53100
O628        O  0.74907659  0.57409684  0.94297558    -0.97700
O629        O  0.69517532  0.62786661  0.89672202    -0.55000
O630        O  0.70733953  0.53660860  0.89576777    -0.74300
C631        C  0.69882856  0.50833982  0.87760019     0.98000
O632        O  0.80941156  0.52930731  0.81892033    -0.63100
O633        O  0.85891975  0.77607692  0.82074262    -0.57900
O634        O  0.80994755  0.59866194  0.81184721    -0.94600
O635        O  0.81897585  0.67607524  0.80995213    -0.93000
O636        O  0.97491410  0.74787556  0.81896772    -0.93400
O637        O  0.97603301  0.66091644  0.82617304    -0.92200
C638        C  0.81364235  0.63606933  0.80004183     1.16900
H639        H  0.93068482  0.78244079  0.86054849     0.32800
H640        H  0.91651879  0.59816443  0.86366887     0.43700
H641        H  0.74162129  0.61035433  0.85584218     0.37200
H642        H  0.84978547  0.65980388  0.93994569     0.33700
H643        H  0.05742860  0.72958982  0.86015647     0.25500
H644        H  0.81895449  0.53638020  0.94036125     0.31400
H645        H  0.71249569  0.55012872  0.94209863     0.37300
H646        H  0.94637143  0.75335869  0.81572383     0.31800
H647        H  0.83222922  0.78497629  0.81941794     0.30600
H648        H  0.74165535  0.69107145  0.82401761     0.32300
H649        H  0.67589825  0.60112647  0.88482391     0.31300
H650        H  0.94331983  0.63298152  0.82050027     0.35300
H651        H  0.84201585  0.53032375  0.81788201     0.28000
H652        H  0.92737916  0.81255469  0.94709682     0.32300
H653        H  0.71712651  0.64112892  0.94275379     0.35100
H654        H  0.88772684  0.80571666  0.82827427     0.27700
H655        H  0.78470024  0.49427317  0.82325479     0.40600
H656        H  0.97785813  0.60638509  0.89711676     0.30600
H657        H  0.03365864  0.70598678  0.88477619     0.38300
H658        H  0.70827924  0.65957886  0.88767791     0.30100
H659        H  0.87094404  0.54553299  0.94974852     0.30200
H660        H  0.88078943  0.76178223  0.95537896     0.30400
Zr661      Zr  0.76198730  0.88003773  0.09037662     2.17500
O662        O  0.80596405  0.86681612  0.05765410    -0.51900
O663        O  0.82980764  0.96298351  0.10029216    -0.75100
O664        O  0.75984004  0.92284441  0.05405802    -0.81900
O665        O  0.80424587  0.81431226  0.13448704    -0.83600
O666        O  0.68288567  0.91517396  0.05065764    -0.79300
O667        O  0.82579352  0.85850410  0.09979709    -0.89700
O668        O  0.80691058  0.99339401  0.13161822    -0.76900
O669        O  0.71732782  0.92246780  0.09922833    -0.86400
O670        O  0.76631740  0.88937488  0.13271129    -0.86100
O671        O  0.67878739  0.82631704  0.07497548    -0.72800
O672        O  0.72451972  0.79755170  0.10698574    -0.84900
Zr673      Zr  0.59830317  0.79490124  0.14348994     2.26400
Zr674      Zr  0.63353343  0.86822437  0.08509986     2.06300
Zr675      Zr  0.72677060  0.80689287  0.14940298     2.10000
Zr676      Zr  0.72119070  0.93163771  0.14129819     1.78800
O677        O  0.71209303  0.72247827  0.15673038    -0.93700
O678        O  0.72065657  0.00772273  0.12995203    -0.41600
O679        O  0.68189927  0.84936094  0.15745626    -0.78200
O680        O  0.63612565  0.87908717  0.12758128    -0.96900
O681        O  0.59421605  0.78517511  0.10129008    -0.90200
O682        O  0.64295273  0.75191280  0.13535692    -0.93000
C683        C  0.83865774  0.99652477  0.11609679     1.00700
C684        C  0.83299141  0.83420531  0.11646622     1.13700
C685        C  0.72777972  0.93103133  0.04316621     1.04400
O686        O  0.62448293  0.94112312  0.07750132    -0.95200
O687        O  0.55136071  0.85367808  0.09692915    -0.90900
O688        O  0.53146641  0.81045735  0.13168977    -0.84100
C689        C  0.52193256  0.83190896  0.11453497     1.11100
O690        O  0.67850779  0.72476876  0.05967935    -0.97200
Zr691      Zr  0.64099626  0.74471063  0.09282888     1.88900
O692        O  0.54005301  0.70500652  0.13889103    -0.73800
O693        O  0.58118065  0.82367488  0.05076879    -0.53100
O694        O  0.58570664  0.71235433  0.05809192    -0.97700
O695        O  0.65998069  0.67878615  0.10240687    -0.55000
O696        O  0.56066387  0.67859275  0.10542422    -0.74300
C697        C  0.53191669  0.67161003  0.12306100     0.98000
O698        O  0.54042908  0.78294452  0.17572882    -0.63100
O699        O  0.79153189  0.83961265  0.18040700    -0.57900
O700        O  0.61731100  0.79529975  0.18563441    -0.94600
O701        O  0.69342570  0.80151674  0.18967767    -0.93000
O702        O  0.76270861  0.94973440  0.18014786    -0.93400
O703        O  0.68014441  0.95691470  0.17066310    -0.92200
C704        C  0.65367926  0.79900632  0.19851099     1.16900
H705        H  0.80053182  0.90769321  0.13853103     0.32800
H706        H  0.61723118  0.89502729  0.13215165     0.43700
H707        H  0.62857263  0.71989089  0.14332607     0.37200
H708        H  0.67960952  0.82308314  0.05787750     0.33700
H709        H  0.74708117  0.03452025  0.14001452     0.25500
H710        H  0.54668186  0.80410046  0.05710097     0.31400
H711        H  0.55767394  0.71841140  0.06153160     0.37300
H712        H  0.77650882  0.98621468  0.18260346     0.31800
H713        H  0.80261696  0.81459561  0.18196033     0.30600
H714        H  0.72835337  0.72480555  0.17232950     0.32300
H715        H  0.64339320  0.66487213  0.11782778     0.31300
H716        H  0.65771966  0.92568121  0.17942582     0.35300
H717        H  0.54213694  0.81573735  0.17780519     0.28000
H718        H  0.83344768  0.90072148  0.05331836     0.32300
H719        H  0.71478048  0.74979611  0.06093465     0.35100
H720        H  0.82057873  0.86962475  0.17346373     0.27700
H721        H  0.50618600  0.75998534  0.16951223     0.40600
H722        H  0.65665521  0.97015198  0.08293301     0.30600
H723        H  0.73458831  0.01530450  0.11364863     0.38300
H724        H  0.69634781  0.69684602  0.10623948     0.30100
H725        H  0.58071798  0.85023848  0.04099406     0.30200
H726        H  0.78247632  0.85556311  0.04388729     0.30400
Zr727      Zr  0.87013436  0.10440570  0.91000728     2.17500
O728        O  0.92667557  0.11845092  0.94344570    -0.51900
O729        O  0.85531301  0.02154090  0.90131400    -0.75100
O730        O  0.82350689  0.05911465  0.94546403    -0.81900
O731        O  0.97851602  0.17489774  0.86649458    -0.83600
O732        O  0.75202248  0.06331653  0.94746022    -0.79300
O733        O  0.95613473  0.12769129  0.90013540    -0.90900
O734        O  0.79953860  0.99015388  0.87070022    -0.76900
O735        O  0.78266237  0.06161302  0.90080574    -0.86400
O736        O  0.86434587  0.09547599  0.86767527    -0.86100
O737        O  0.83987793  0.15684372  0.92548489    -0.72800
O738        O  0.91547962  0.18729232  0.89388172    -0.84900
Zr739      Zr  0.79110586  0.19019981  0.85708465     2.26400
Zr740      Zr  0.75271545  0.11525757  0.91464947     2.06300
Zr741      Zr  0.90671719  0.17852456  0.85153653     2.10000
Zr742      Zr  0.77695704  0.05256377  0.85882385     1.78800
O743        O  0.97390498  0.26340107  0.84258765    -0.93700
O744        O  0.69738742  0.97918490  0.86967145    -0.41600
O745        O  0.81903394  0.13530197  0.84235247    -0.78200
O746        O  0.74478444  0.10537169  0.87219440    -0.96900
O747        O  0.79774586  0.19854400  0.89922962    -0.90200
O748        O  0.87865622  0.23325973  0.86602602    -0.93000
C749        C  0.82833953  0.98678820  0.88635142     1.00700
C750        C  0.98784670  0.15373607  0.88388176     1.13700
C751        C  0.78153067  0.04822750  0.95524094     1.04400
O752        O  0.66755104  0.04495816  0.91885894    -0.95200
O753        O  0.68767667  0.13497141  0.90426858    -0.90900
O754        O  0.70820874  0.17249459  0.86818294    -0.84100
C755        C  0.67891464  0.15478124  0.88608300     1.11100
O756        O  0.94032302  0.25044370  0.94220961    -0.97200
Zr757      Zr  0.88496493  0.23922813  0.90858792     1.88900
O758        O  0.82208316  0.27965053  0.86363276    -0.73800
O759        O  0.74886257  0.15762631  0.95051580    -0.53100
O760        O  0.86249523  0.27025501  0.94359037    -0.97700
O761        O  0.97008953  0.30572576  0.89943697    -0.55000
O762        O  0.87031512  0.30589352  0.89712105    -0.74300
C763        C  0.84765591  0.31277961  0.87965338     0.98000
O764        O  0.73430409  0.20524141  0.83248834    -0.63100
O765        O  0.94013367  0.14503578  0.82192384    -0.57900
O766        O  0.81154559  0.19359780  0.81467167    -0.94600
O767        O  0.88195951  0.18794460  0.81157834    -0.93000
O768        O  0.80068764  0.02826363  0.82199771    -0.93400
O769        O  0.71389422  0.02686093  0.82731111    -0.92200
C770        C  0.84536002  0.19117603  0.80234754     1.16900
H771        H  0.88008848  0.07714730  0.86198396     0.32800
H772        H  0.70984399  0.08959720  0.86746076     0.43700
H773        H  0.89618925  0.26556803  0.85829640     0.37200
H774        H  0.84354306  0.15918117  0.94264401     0.33700
H775        H  0.69251808  0.95292119  0.85801247     0.25500
H776        H  0.74355763  0.18496634  0.94465560     0.31400
H777        H  0.82929205  0.26632600  0.93968874     0.37300
H778        H  0.82303669  0.06037529  0.81385831     0.31800
H779        H  0.97550162  0.17163933  0.81954816     0.30600
H780        H  0.00010781  0.25888550  0.83477398     0.32300
H781        H  0.97638136  0.33402167  0.91003892     0.31300
H782        H  0.72143105  0.05857827  0.81934920     0.35300
H783        H  0.75570546  0.23791796  0.82460993     0.28000
H784        H  0.91867255  0.08451564  0.94869591     0.32300
H785        H  0.95497643  0.28589737  0.94729690     0.35100
H786        H  0.94222437  0.11738381  0.82985470     0.27700
H787        H  0.72211797  0.17977619  0.81959127     0.40600
H788        H  0.66803815  0.01646448  0.91095084     0.30600
H789        H  0.70433811  0.96760702  0.88493515     0.38300
H790        H  0.96801540  0.31744508  0.88327519     0.30100
H791        H  0.71655784  0.13337085  0.95793889     0.30200
H792        H  0.91489453  0.13154769  0.95648941     0.30400
C793        C  0.70542088  0.95223534  0.00354423    -0.20900
C794        C  0.74299727  0.96040013  0.02035595    -0.07500
C795        C  0.79348173  0.99713607  0.01513816     0.13400
C796        C  0.80452335  0.02439889  0.99372196    -0.20900
C797        C  0.76682934  0.01688203  0.97725072    -0.07500
C798        C  0.71651635  0.97975979  0.98218496     0.13400
C799        C  0.67432856  0.96775783  0.96480302    -0.24300
H800        H  0.66683945  0.92389728  0.00709955     0.14700
H801        H  0.84305084  0.05272035  0.99001370     0.14700
C802        C  0.83607605  0.00956505  0.03227368    -0.24200
H803        H  0.63829422  0.93524514  0.97074040     0.04900
H804        H  0.68332664  0.95826538  0.94710453     0.08200
H805        H  0.66841490  0.00033410  0.96314723     0.08200
H806        H  0.84161302  0.97682265  0.03424625     0.08100
H807        H  0.82767998  0.02022131  0.04980903     0.08100
H808        H  0.87214115  0.04152430  0.02598121     0.04900
C809        C  0.87811112  0.94565095  0.89550313    -0.20900
C810        C  0.83284953  0.94093492  0.88693140    -0.07500
C811        C  0.79397184  0.89313974  0.87931517     0.13400
C812        C  0.80218793  0.85223911  0.87976719    -0.20900
C813        C  0.84822446  0.85756987  0.88736729    -0.07500
C814        C  0.88655747  0.90494293  0.89566093     0.13400
C815        C  0.93715954  0.91369661  0.90381507    -0.24300
H816        H  0.90774007  0.98184177  0.90171972     0.14700
H817        H  0.77246589  0.81571514  0.87382720     0.14700
C818        C  0.74348184  0.88433796  0.87100697    -0.24200
H819        H  0.96348689  0.95382453  0.90811032     0.04900
H820        H  0.95440669  0.90246011  0.88954355     0.08200
H821        H  0.93294903  0.89175318  0.92019158     0.08200
H822        H  0.74753575  0.90474470  0.85411548     0.08100
H823        H  0.72688173  0.89714401  0.88490143     0.08100
H824        H  0.71669424  0.84393402  0.86750072     0.04900
C825        C  0.89422129  0.45260714  0.88319962    -0.20900
C826        C  0.84958060  0.45314943  0.87921926    -0.07500
C827        C  0.80467819  0.40765231  0.87413861     0.13400
C828        C  0.80564734  0.36256805  0.87361624    -0.20900
C829        C  0.85008735  0.36184645  0.87838727    -0.07500
C830        C  0.89507172  0.40756133  0.88307547     0.13400
C831        C  0.94427294  0.40947340  0.88775445    -0.24300
H832        H  0.92862075  0.48774339  0.88665287     0.14700
H833        H  0.77115915  0.32745219  0.87026265     0.14700
C834        C  0.75529860  0.40599690  0.87038167    -0.24200
H835        H  0.97601623  0.44870927  0.88915975     0.04900
H836        H  0.95247904  0.39077737  0.87297046     0.08200
H837        H  0.94260920  0.39075311  0.90487919     0.08200
H838        H  0.75661851  0.42670036  0.85398205     0.08100
H839        H  0.74736579  0.42314756  0.88591931     0.08100
H840        H  0.72358156  0.36687961  0.86835579     0.04900
C841        C  0.05026214  0.78292156  0.00324880    -0.20900
C842        C  0.04190325  0.74532138  0.01978089    -0.07500
C843        C  0.00502562  0.69498875  0.01469396     0.13400
C844        C  0.97764506  0.68372747  0.99322865    -0.20900
C845        C  0.98637085  0.72125478  0.97649604    -0.07500
C846        C  0.02387016  0.77162635  0.98153703     0.13400
C847        C  0.03851083  0.81350998  0.96379716    -0.24300
H848        H  0.07871817  0.82146431  0.00710552     0.14700
H849        H  0.94898687  0.64519326  0.98954104     0.14700
C850        C  0.99316868  0.65314688  0.03205125    -0.24200
H851        H  0.07147188  0.84920052  0.97001236     0.04900
H852        H  0.00720646  0.82101902  0.96103586     0.08200
H853        H  0.04867295  0.80318742  0.94660644     0.08200
H854        H  0.98324380  0.66223375  0.04961886     0.08100
H855        H  0.02604234  0.64778315  0.03408300     0.08100
H856        H  0.96102740  0.61685627  0.02585574     0.04900
C857        C  0.92463923  0.87220836  0.11168426    -0.20900
C858        C  0.87773076  0.82883153  0.11466932    -0.07500
C859        C  0.87418306  0.78126397  0.11503681     0.13400
C860        C  0.91805019  0.77837892  0.11324402    -0.20900
C861        C  0.96511152  0.82174758  0.11054331    -0.07500
C862        C  0.96846155  0.86931196  0.10947014     0.13400
C863        C  0.01802676  0.91715181  0.10655898    -0.24300
H864        H  0.92694673  0.90854127  0.11123303     0.14700
H865        H  0.91562921  0.74200700  0.11379835     0.14700
C866        C  0.82414281  0.73344942  0.11648970    -0.24200
H867        H  0.01383771  0.95093675  0.10736855     0.04900
H868        H  0.03407887  0.91701878  0.08894163     0.08200
H869        H  0.04452892  0.92048856  0.12093122     0.08200
H870        H  0.79933917  0.73211175  0.10169361     0.08100
H871        H  0.80612176  0.73164348  0.13379263     0.08100
H872        H  0.82814789  0.69963355  0.11504022     0.04900
C873        C  0.43056092  0.78696776  0.12279444    -0.20900
C874        C  0.47361296  0.83131693  0.11556304    -0.07500
C875        C  0.47004877  0.87452761  0.11088920     0.13400
C876        C  0.42366718  0.87214551  0.11346887    -0.20900
C877        C  0.38055488  0.82778070  0.12058454    -0.07500
C878        C  0.38400396  0.78445477  0.12520565     0.13400
C879        C  0.33869098  0.73512077  0.13182292    -0.24300
H880        H  0.43328022  0.75390444  0.12637916     0.14700
H881        H  0.42092240  0.90525828  0.10973404     0.14700
C882        C  0.51507020  0.92367649  0.10381473    -0.24200
H883        H  0.34766350  0.70444940  0.13314182     0.04900
H884        H  0.30872191  0.72405306  0.11811343     0.08200
H885        H  0.32463484  0.73870480  0.14941571     0.08200
H886        H  0.52871393  0.91967573  0.08617373     0.08100
H887        H  0.54537246  0.93526906  0.11738252     0.08100
H888        H  0.50588658  0.95417067  0.10232541     0.04900
C889        C  0.58828228  0.38481766  0.89716445    -0.20900
C890        C  0.55394285  0.37577228  0.87870269    -0.07500
C891        C  0.56857224  0.40893601  0.85904741     0.13400
C892        C  0.61705189  0.45107184  0.85873081    -0.20900
C893        C  0.65107164  0.46047277  0.87741957    -0.07500
C894        C  0.63685974  0.42640615  0.89669164     0.13400
C895        C  0.67202681  0.43189654  0.91681749    -0.24300
H896        H  0.57748289  0.35855153  0.91185607     0.14700
H897        H  0.62806687  0.47756016  0.84414310     0.14700
C898        C  0.53293192  0.40120287  0.83878737    -0.24200
H899        H  0.65692744  0.43672374  0.93390189     0.04900
H900        H  0.71055315  0.46406145  0.91455314     0.08200
H901        H  0.67497410  0.39742373  0.91790806     0.08200
H902        H  0.49769426  0.39770217  0.84581741     0.08100
H903        H  0.52425991  0.36687675  0.82866241     0.08100
H904        H  0.54937037  0.43308497  0.82607637     0.04900
C905        C  0.08365871  0.89794497  0.90405804    -0.20900
C906        C  0.06506097  0.87165181  0.88252540    -0.07500
C907        C  0.08722558  0.89592965  0.86084237     0.13400
C908        C  0.12752666  0.94547143  0.86141450    -0.20900
C909        C  0.14644391  0.97193944  0.88298808    -0.07500
C910        C  0.12390135  0.94757394  0.90464707     0.13400
C911        C  0.14222996  0.97269929  0.92855188    -0.24300
H912        H  0.06646383  0.87944582  0.92063110     0.14700
H913        H  0.14420010  0.96383513  0.84472917     0.14700
C914        C  0.06768145  0.87087234  0.83693421    -0.24200
H915        H  0.12174114  0.94689808  0.94347844     0.04900
H916        H  0.13603021  0.00512968  0.92994239     0.08200
H917        H  0.18271127  0.98529958  0.93083089     0.08200
H918        H  0.02710887  0.85835667  0.83515024     0.08100
H919        H  0.07341919  0.83820799  0.83506726     0.08100
H920        H  0.08751194  0.89673252  0.82193852     0.04900
C921        C  0.56386270  0.16422037  0.90263572    -0.20900
C922        C  0.54560087  0.16717828  0.87997561    -0.07500
C923        C  0.57124691  0.16579387  0.85950740     0.13400
C924        C  0.61387042  0.16087385  0.86229199    -0.20900
C925        C  0.63205840  0.15753580  0.88495578    -0.07500
C926        C  0.60641524  0.15924820  0.90546604     0.13400
C927        C  0.62356667  0.15672289  0.93042370    -0.24300
H928        H  0.54442092  0.16559684  0.91840273     0.14700
H929        H  0.63291284  0.15918367  0.84646327     0.14700
C930        C  0.55335712  0.16791769  0.83468124    -0.24200
H931        H  0.60013754  0.16104537  0.94413677     0.04900
H932        H  0.66290675  0.18737973  0.93321269     0.08200
H933        H  0.62068737  0.11971167  0.93338930     0.08200
H934        H  0.55599228  0.20482483  0.83176214     0.08100
H935        H  0.51390023  0.13726074  0.83215578     0.08100
H936        H  0.57644709  0.16344223  0.82083899     0.04900
C937        C  0.09872655  0.13283317  0.89276314    -0.20900
C938        C  0.13848088  0.17796791  0.88380749    -0.07500
C939        C  0.12854194  0.21584083  0.87595867     0.13400
C940        C  0.07913543  0.20678721  0.87661554    -0.20900
C941        C  0.03927964  0.16121806  0.88509592    -0.07500
C942        C  0.04940967  0.12383489  0.89343737     0.13400
C943        C  0.00841386  0.07334116  0.90187486    -0.24300
H944        H  0.10599564  0.10357770  0.89876769     0.14700
H945        H  0.07158205  0.23578061  0.87049204     0.14700
C946        C  0.16959436  0.26643252  0.86760744    -0.24200
H947        H  0.02316017  0.04813928  0.90671757     0.04900
H948        H  0.98018716  0.05489037  0.88740579     0.08200
H949        H  0.99028040  0.07773018  0.91798883     0.08200
H950        H  0.18633439  0.26228102  0.85093567     0.08100
H951        H  0.19898156  0.28413720  0.88166425     0.08100
H952        H  0.15515903  0.29232931  0.86373852     0.04900
C953        C  0.96435006  0.10529572  0.13645171    -0.20900
C954        C  0.98814134  0.12408641  0.11444437    -0.07500
C955        C  0.96240727  0.09981226  0.09314615     0.13400
C956        C  0.91357978  0.05879728  0.09447834    -0.20900
C957        C  0.88940037  0.04115579  0.11635929    -0.07500
C958        C  0.91542794  0.06418951  0.13772430     0.13400
C959        C  0.89280924  0.04493507  0.16191508    -0.24300
H960        H  0.98412629  0.12300702  0.15286126     0.14700
H961        H  0.89392142  0.04040535  0.07818402     0.14700
C962        C  0.98496446  0.11722301  0.06883560    -0.24200
H963        H  0.92005932  0.06525737  0.17655566     0.04900
H964        H  0.88077872  0.00445573  0.16346429     0.08200
H965        H  0.86015373  0.05034228  0.16454280     0.08200
H966        H  0.01821856  0.11250936  0.06691402     0.08100
H967        H  0.99571341  0.15714933  0.06633455     0.08100
H968        H  0.95812610  0.09517144  0.05432556     0.04900
C969        C  0.48878810  0.58024061  0.11532580    -0.20900
C970        C  0.48636879  0.62152265  0.12449474    -0.07500
C971        C  0.43967819  0.61474297  0.13202559     0.13400
C972        C  0.39661105  0.56769109  0.12912518    -0.20900
C973        C  0.39870139  0.52705905  0.11904464    -0.07500
C974        C  0.44557416  0.53308297  0.11244777     0.13400
C975        C  0.45068795  0.49015296  0.10286824    -0.24300
H976        H  0.52474730  0.58518732  0.10993483     0.14700
H977        H  0.36066575  0.56278960  0.13441658     0.14700
C978        C  0.43425734  0.65702036  0.14220222    -0.24200
H979        H  0.49057908  0.50136767  0.09980063     0.04900
H980        H  0.43060893  0.47721096  0.08554990     0.08200
H981        H  0.43502113  0.45873994  0.11582427     0.08200
H982        H  0.39443417  0.64542429  0.14576622     0.08100
H983        H  0.44909544  0.68853421  0.12936622     0.08100
H984        H  0.45516236  0.66972823  0.15933878     0.04900
C985        C  0.21276440  0.61426161  0.13438238    -0.20900
C986        C  0.17341243  0.61391456  0.12120290    -0.07500
C987        C  0.13587652  0.56816436  0.11114126     0.13400
C988        C  0.14032916  0.52522495  0.11329026    -0.20900
C989        C  0.18138570  0.52612886  0.12507709    -0.07500
C990        C  0.21750217  0.57120462  0.13631125     0.13400
C991        C  0.26208964  0.57502741  0.14947901    -0.24300
H992        H  0.24091537  0.64888946  0.14270349     0.14700
H993        H  0.11155022  0.49054354  0.10521434     0.14700
C994        C  0.09028140  0.56359146  0.09855848    -0.24200
H995        H  0.28758846  0.61367465  0.15624289     0.04900
H996        H  0.28396214  0.56495188  0.13733726     0.08200
H997        H  0.24918666  0.54938112  0.16502685     0.08200
H998        H  0.10149253  0.58594688  0.08191924     0.08100
H999        H  0.07058856  0.57673281  0.11050962     0.08100
H1000       H  0.06314038  0.52413830  0.09343920     0.04900
C1001       C  0.14538748  0.02825702  0.09548146    -0.20900
C1002       C  0.18429966  0.02355542  0.10593363    -0.07500
C1003       C  0.22748341  0.06702506  0.11473464     0.13400
C1004       C  0.22900905  0.11323456  0.11404493    -0.20900
C1005       C  0.18856180  0.11742689  0.10504188    -0.07500
C1006       C  0.14633179  0.07423265  0.09524590     0.13400
C1007       C  0.10083369  0.07503711  0.08559867    -0.24300
H1008       H  0.11287581  0.99520042  0.08833389     0.14700
H1009       H  0.26189191  0.14631137  0.12103846     0.14700
C1010       C  0.27253397  0.06560417  0.12458743    -0.24200
H1011       H  0.07069545  0.03710868  0.07990833     0.04900
H1012       H  0.11115353  0.09971262  0.06973760     0.08200
H1013       H  0.08500972  0.08850885  0.09958455     0.08200
H1014       H  0.28520800  0.04714438  0.11159393     0.08100
H1015       H  0.26310722  0.04512371  0.14176205     0.08100
H1016       H  0.30461650  0.10392525  0.12812553     0.04900
C1017       C  0.23764616  0.22750331  0.97937101    -0.20900
C1018       C  0.28865763  0.24288053  0.97633445    -0.07500
C1019       C  0.32281924  0.26958595  0.99515753     0.13400
C1020       C  0.30497526  0.28001127  0.01616386    -0.20900
C1021       C  0.25390337  0.26436460  0.01919733    -0.07500
C1022       C  0.21980857  0.23753770  0.00042933     0.13400
C1023       C  0.16475512  0.22046604  0.00196913    -0.24300
H1024       H  0.21127171  0.20753937  0.96502320     0.14700
H1025       H  0.33123228  0.30033502  0.03050038     0.14700
C1026       C  0.37786771  0.28625552  0.99373159    -0.24200
H1027       H  0.14443744  0.20290378  0.98507703     0.04900
H1028       H  0.15987936  0.25315263  0.00571829     0.08200
H1029       H  0.14733106  0.19187773  0.01615950     0.08200
H1030       H  0.39576885  0.31458492  0.97943717     0.08100
H1031       H  0.38247398  0.25332491  0.99020298     0.08100
H1032       H  0.39811163  0.30393403  0.01061664     0.04900
C1033       C  0.81107145  0.19902432  0.73729933    -0.20900
C1034       C  0.82452870  0.16659412  0.72600700    -0.07500
C1035       C  0.84705538  0.14467826  0.74016023     0.13400
C1036       C  0.85375762  0.15457980  0.76470700    -0.20900
C1037       C  0.83935625  0.18604064  0.77596162    -0.07500
C1038       C  0.81787428  0.20878598  0.76197049     0.13400
C1039       C  0.80245800  0.24377645  0.77270634    -0.24300
H1040       H  0.79455187  0.21667888  0.72680881     0.14700
H1041       H  0.86971684  0.13656382  0.77537038     0.14700
C1042       C  0.86531262  0.11141575  0.72995826    -0.24200
H1043       H  0.79050197  0.26149971  0.75886553     0.04900
H1044       H  0.83436533  0.27420039  0.78282211     0.08200
H1045       H  0.77010660  0.22243823  0.78462685     0.08200
H1046       H  0.89320058  0.13166004  0.71575577     0.08100
H1047       H  0.83294255  0.07637284  0.72290005     0.08100
H1048       H  0.88405512  0.10014694  0.74361143     0.04900
C1049       C  0.96042297  0.19652923  0.50459670    -0.20900
C1050       C  0.97022838  0.23400562  0.52151938    -0.07500
C1051       C  0.00721026  0.28431574  0.51655300     0.13400
C1052       C  0.03306988  0.29563807  0.49487334    -0.20900
C1053       C  0.02280614  0.25839509  0.47769492    -0.07500
C1054       C  0.98556479  0.20796588  0.48266499     0.13400
C1055       C  0.97023888  0.16612864  0.46474381    -0.24300
H1056       H  0.93193133  0.15805534  0.50835132     0.14700
H1057       H  0.06173579  0.33414240  0.49133907     0.14700
C1058       C  0.02073347  0.32630237  0.53417179    -0.24200
H1059       H  0.93783543  0.13030564  0.47098955     0.04900
H1060       H  0.00167326  0.15904189  0.46166924     0.08200
H1061       H  0.95898246  0.17623344  0.44771355     0.08200
H1062       H  0.03144552  0.31695984  0.55155322     0.08100
H1063       H  0.98844857  0.33240418  0.53655289     0.08100
H1064       H  0.05287063  0.36237653  0.52799048     0.04900
C1065       C  0.22038476  0.35020806  0.26070299    -0.20900
C1066       C  0.18270349  0.35243569  0.27355973    -0.07500
C1067       C  0.14331307  0.35394540  0.26113246     0.13400
C1068       C  0.14234938  0.35253032  0.23612188    -0.20900
C1069       C  0.18019166  0.35058944  0.22329317    -0.07500
C1070       C  0.21977307  0.34933907  0.23571779     0.13400
C1071       C  0.26083614  0.34502882  0.22337322    -0.24300
H1072       H  0.25021540  0.34844940  0.27025684     0.14700
H1073       H  0.11201950  0.35315968  0.22648331     0.14700
C1074       C  0.10134023  0.35531222  0.27411663    -0.24200
H1075       H  0.26149647  0.31138338  0.23004622     0.04900
H1076       H  0.29769241  0.37890766  0.22733144     0.08200
H1077       H  0.25585774  0.34101399  0.20379578     0.08200
H1078       H  0.11651750  0.39055100  0.28464384     0.08100
H1079       H  0.08252704  0.32249287  0.28618611     0.08100
H1080       H  0.07256099  0.35398167  0.26160767     0.04900
C1081       C  0.32702257  0.16790660  0.76238565    -0.20900
C1082       C  0.36787949  0.16620003  0.77246418    -0.07500
C1083       C  0.40678347  0.17131102  0.75750187     0.13400
C1084       C  0.40305309  0.17664307  0.73272974    -0.20900
C1085       C  0.36184247  0.17815418  0.72235199    -0.07500
C1086       C  0.32362203  0.17455157  0.73781885     0.13400
C1087       C  0.27888743  0.17781536  0.72912047    -0.24300
H1088       H  0.29764943  0.16483864  0.77403834     0.14700
H1089       H  0.43269699  0.17939305  0.72143192     0.14700
C1090       C  0.45149506  0.16965028  0.76745423    -0.24200
H1091       H  0.25485417  0.17691966  0.74400621     0.04900
H1092       H  0.25507969  0.14521819  0.71745612     0.08200
H1093       H  0.29162263  0.21366306  0.71946311     0.08200
H1094       H  0.43874118  0.13393007  0.77722840     0.08100
H1095       H  0.47301783  0.20179977  0.77974027     0.08100
H1096       H  0.47737108  0.17201856  0.75316581     0.04900
C1097       C  0.56457807  0.15641355  0.63700122    -0.20900
C1098       C  0.54252932  0.15141249  0.61428964    -0.07500
C1099       C  0.56983226  0.15234572  0.59391987     0.13400
C1100       C  0.61662420  0.15568169  0.59695469    -0.20900
C1101       C  0.63824445  0.15979052  0.61966500    -0.07500
C1102       C  0.61239680  0.16182096  0.63993568     0.13400
C1103       C  0.63446544  0.16951781  0.66467539    -0.24300
H1104       H  0.54437948  0.15644939  0.65272777     0.14700
H1105       H  0.63689836  0.15567685  0.58123551     0.14700
C1106       C  0.55128914  0.15162158  0.56887139    -0.24200
H1107       H  0.60827683  0.16877748  0.67839847     0.04900
H1108       H  0.66922594  0.20677732  0.66585156     0.08200
H1109       H  0.64309253  0.13942753  0.66895821     0.08200
H1110       H  0.54365775  0.18301529  0.56652350     0.08100
H1111       H  0.51670747  0.11521600  0.56521315     0.08100
H1112       H  0.57940503  0.15619025  0.55531948     0.04900
C1113       C  0.06881552  0.15511101  0.59167968    -0.20900
C1114       C  0.05337271  0.16577175  0.61332977    -0.07500
C1115       C  0.07900211  0.16725570  0.63461625     0.13400
C1116       C  0.12016989  0.15983841  0.63350780    -0.20900
C1117       C  0.13617953  0.14983072  0.61186072    -0.07500
C1118       C  0.10973816  0.14701470  0.59062663     0.13400
C1119       C  0.12467896  0.13665246  0.56673190    -0.24300
H1120       H  0.04875900  0.15324206  0.57539959     0.14700
H1121       H  0.13967072  0.16121233  0.64989596     0.14700
C1122       C  0.06242213  0.17467794  0.65875538    -0.24200
H1123       H  0.10152092  0.13879974  0.55201379     0.04900
H1124       H  0.11916989  0.09816460  0.56649035     0.08200
H1125       H  0.16453077  0.16478127  0.56313555     0.08200
H1126       H  0.02222016  0.14641676  0.66148730     0.08100
H1127       H  0.06829026  0.21319945  0.66012385     0.08100
H1128       H  0.08425760  0.17028155  0.67345344     0.04900
C1129       C  0.26112362  0.94782558  0.49256708    -0.20900
C1130       C  0.23211358  0.95749416  0.47624939    -0.07500
C1131       C  0.21911668  0.99438390  0.48211822     0.13400
C1132       C  0.23716042  0.02151856  0.50353019    -0.20900
C1133       C  0.26665385  0.01208623  0.51958670    -0.07500
C1134       C  0.27773846  0.97385808  0.51426058     0.13400
C1135       C  0.30496740  0.95854566  0.53175650    -0.24300
H1136       H  0.27021678  0.91888168  0.48852123     0.14700
H1137       H  0.22811238  0.05041432  0.50780963     0.14700
C1138       C  0.18675085  0.00597744  0.46606951    -0.24200
H1139       H  0.30704324  0.92551349  0.52531467     0.04900
H1140       H  0.28486254  0.94828423  0.54902539     0.08200
H1141       H  0.34400577  0.98974293  0.53448779     0.08200
H1142       H  0.14848731  0.97268446  0.46476660     0.08100
H1143       H  0.20359708  0.01668593  0.44807797     0.08100
H1144       H  0.18270089  0.03750618  0.47308207     0.04900
C1145       C  0.12962061  0.04044777  0.39351665    -0.20900
C1146       C  0.17360247  0.04490522  0.38362074    -0.07500
C1147       C  0.20965988  0.09161437  0.37376488     0.13400
C1148       C  0.19999320  0.13155383  0.37358216    -0.20900
C1149       C  0.15567963  0.12665625  0.38308249    -0.07500
C1150       C  0.11993696  0.08032855  0.39322890     0.13400
C1151       C  0.07036700  0.07145834  0.40271402    -0.24300
H1152       H  0.10158750  0.00487767  0.40097450     0.14700
H1153       H  0.22757429  0.16722202  0.36601616     0.14700
C1154       C  0.25897710  0.10066886  0.36391351    -0.24200
H1155       H  0.04584784  0.03193629  0.40845472     0.04900
H1156       H  0.04993020  0.07955852  0.38862229     0.08200
H1157       H  0.07662344  0.09569765  0.41847707     0.08200
H1158       H  0.25247029  0.07720163  0.34781325     0.08100
H1159       H  0.27947632  0.09197761  0.37772133     0.08100
H1160       H  0.28354031  0.14040267  0.35850878     0.04900
C1161       C  0.18920176  0.56753483  0.37171806    -0.20900
C1162       C  0.14630772  0.52707204  0.38171744    -0.07500
C1163       C  0.10598493  0.53362168  0.38860094     0.13400
C1164       C  0.11004253  0.58070998  0.38545992    -0.20900
C1165       C  0.15346000  0.62173193  0.37577483    -0.07500
C1166       C  0.19364601  0.61476848  0.36880866     0.13400
C1167       C  0.24195230  0.65675889  0.35896533    -0.24300
H1168       H  0.21983822  0.56219173  0.36626333     0.14700
H1169       H  0.07893262  0.58552599  0.39078048     0.14700
C1170       C  0.05807428  0.49104826  0.39850541    -0.24200
H1171       H  0.27000065  0.64480867  0.35576408     0.04900
H1172       H  0.25887922  0.68865120  0.37176451     0.08200
H1173       H  0.23438742  0.66907334  0.34163936     0.08200
H1174       H  0.06583348  0.47854722  0.41574583     0.08100
H1175       H  0.04158371  0.45919753  0.38566794     0.08100
H1176       H  0.02967614  0.50248478  0.40182465     0.04900
C1177       C  0.18967320  0.78338319  0.23317476    -0.20900
C1178       C  0.19961851  0.82943993  0.22296308    -0.07500
C1179       C  0.19942480  0.86641846  0.23813672     0.13400
C1180       C  0.18823281  0.85572564  0.26238988    -0.20900
C1181       C  0.17760451  0.80960550  0.27217025    -0.07500
C1182       C  0.17903141  0.77322348  0.25752380     0.13400
C1183       C  0.16779071  0.72309707  0.26736856    -0.24300
H1184       H  0.18920788  0.75444327  0.22202034     0.14700
H1185       H  0.18802345  0.88384422  0.27396337     0.14700
C1186       C  0.21073980  0.91732021  0.22936233    -0.24200
H1187       H  0.16798173  0.69796610  0.25322052     0.04900
H1188       H  0.13013160  0.70414055  0.27572877     0.08200
H1189       H  0.19654793  0.72844955  0.28088888     0.08200
H1190       H  0.18045694  0.91305106  0.21712166     0.08100
H1191       H  0.24760933  0.93638755  0.22026744     0.08100
H1192       H  0.21255350  0.94213953  0.24417456     0.04900
C1193       C  0.83796216  0.67224053  0.73423237    -0.20900
C1194       C  0.82675767  0.62645340  0.72362203    -0.07500
C1195       C  0.80900104  0.58330177  0.73808040     0.13400
C1196       C  0.80325657  0.58742418  0.76267800    -0.20900
C1197       C  0.81516429  0.63359288  0.77345784    -0.07500
C1198       C  0.83246333  0.67662469  0.75871007     0.13400
C1199       C  0.84623725  0.72787522  0.76818434    -0.24300
H1200       H  0.85075745  0.70521185  0.72311757     0.14700
H1201       H  0.78998478  0.55416363  0.77358787     0.14700
C1202       C  0.79809406  0.53335242  0.72805791    -0.24200
H1203       H  0.85881977  0.75652746  0.75387333     0.04900
H1204       H  0.87776235  0.74078636  0.78113637     0.08200
H1205       H  0.81305268  0.72646415  0.77663141     0.08200
H1206       H  0.83184597  0.53755426  0.71890376     0.08100
H1207       H  0.76612876  0.51886921  0.71535474     0.08100
H1208       H  0.78775042  0.50468075  0.74223601     0.04900
C1209       C  0.57352605  0.44496329  0.61071242    -0.20900
C1210       C  0.61890763  0.44525954  0.61338685    -0.07500
C1211       C  0.61833187  0.39981458  0.61824574     0.13400
C1212       C  0.57209673  0.35508407  0.62001972    -0.20900
C1213       C  0.52666795  0.35472543  0.61704313    -0.07500
C1214       C  0.52733838  0.40031044  0.61252106     0.13400
C1215       C  0.47968012  0.40250724  0.61014350    -0.24300
H1216       H  0.57428160  0.48008486  0.60751362     0.14700
H1217       H  0.57139472  0.31995151  0.62312510     0.14700
C1218       C  0.66616275  0.39786684  0.62071791    -0.24200
H1219       H  0.48747581  0.44178586  0.60877540     0.04900
H1220       H  0.45566810  0.38515344  0.62597155     0.08200
H1221       H  0.45911530  0.38257030  0.59374057     0.08200
H1222       H  0.68734529  0.41887861  0.63683194     0.08100
H1223       H  0.68980446  0.41445712  0.60471242     0.08100
H1224       H  0.65848706  0.35868340  0.62251760     0.04900
C1225       C  0.06787480  0.84176701  0.61935262    -0.20900
C1226       C  0.02701284  0.84848098  0.61378198    -0.07500
C1227       C  0.03593572  0.89693521  0.60795781     0.13400
C1228       C  0.08527155  0.93726776  0.60800044    -0.20900
C1229       C  0.12628824  0.93069342  0.61323445    -0.07500
C1230       C  0.11751329  0.88214176  0.61894960     0.13400
C1231       C  0.15991158  0.87213808  0.62391502    -0.24300
H1232       H  0.06089469  0.80451065  0.62377822     0.14700
H1233       H  0.09182538  0.97456334  0.60403481     0.14700
C1234       C  0.99378482  0.90694148  0.60224561    -0.24200
H1235       H  0.14601024  0.83148517  0.62658397     0.04900
H1236       H  0.18032049  0.89199275  0.64039498     0.08200
H1237       H  0.18617779  0.88496494  0.60864275     0.08200
H1238       H  0.96599083  0.89306878  0.61689366     0.08100
H1239       H  0.97510623  0.88796105  0.58530033     0.08100
H1240       H  0.00761339  0.94768358  0.59999621     0.04900
C1241       C  0.82734615  0.43409055  0.59864653    -0.20900
C1242       C  0.82809004  0.45522787  0.62094229    -0.07500
C1243       C  0.83382400  0.43284873  0.64181560     0.13400
C1244       C  0.83999099  0.39077401  0.63966697    -0.20900
C1245       C  0.83997408  0.37007074  0.61726312    -0.07500
C1246       C  0.83316889  0.39205846  0.59645478     0.13400
C1247       C  0.83032145  0.37094936  0.57185011    -0.24300
H1248       H  0.82208083  0.45071329  0.58263587     0.14700
H1249       H  0.84487072  0.37388543  0.65566489     0.14700
C1250       C  0.83448090  0.45339462  0.66628773    -0.24200
H1251       H  0.82156975  0.39126150  0.55798784     0.04900
H1252       H  0.86694771  0.37454630  0.56718815     0.08200
H1253       H  0.80023819  0.33088403  0.57116479     0.08200
H1254       H  0.79764633  0.45033478  0.66991448     0.08100
H1255       H  0.86473542  0.49333444  0.66749109     0.08100
H1256       H  0.84136239  0.43228766  0.68045016     0.04900
C1257       C  0.83782012  0.93983826  0.63585793    -0.20900
C1258       C  0.84058926  0.96425060  0.61427275    -0.07500
C1259       C  0.83481437  0.93843236  0.59251147     0.13400
C1260       C  0.82738738  0.88961142  0.59302299    -0.20900
C1261       C  0.82477886  0.86546902  0.61458919    -0.07500
C1262       C  0.83042692  0.89108192  0.63632493     0.13400
C1263       C  0.83126240  0.86844330  0.66005012    -0.24300
H1264       H  0.84230650  0.95937966  0.65256718     0.14700
H1265       H  0.82344809  0.87002394  0.57642632     0.14700
C1266       C  0.83497818  0.96104117  0.56867840    -0.24200
H1267       H  0.83956511  0.89523578  0.67498850     0.04900
H1268       H  0.86077513  0.85775273  0.66007238     0.08200
H1269       H  0.79413141  0.83491723  0.66354993     0.08200
H1270       H  0.87289037  0.99341451  0.56522241     0.08100
H1271       H  0.80651501  0.97313065  0.56840545     0.08100
H1272       H  0.82584292  0.93379669  0.55385925     0.04900
C1273       C  0.68546243  0.83326356  0.26456951    -0.20900
C1274       C  0.63792975  0.81830545  0.27414033    -0.07500
C1275       C  0.59576611  0.79715722  0.25865807     0.13400
C1276       C  0.60214875  0.78974067  0.23446414    -0.20900
C1277       C  0.64972537  0.80383420  0.22489797    -0.07500
C1278       C  0.69211344  0.82662492  0.24038384     0.13400
C1279       C  0.74485478  0.84500228  0.23188824    -0.24300
H1280       H  0.71800885  0.84959223  0.27629790     0.14700
H1281       H  0.56940856  0.77310172  0.22287990     0.14700
C1282       C  0.54437836  0.78442070  0.26709571    -0.24200
H1283       H  0.77309063  0.86327780  0.24639782     0.04900
H1284       H  0.75443528  0.87326124  0.21759279     0.08200
H1285       H  0.74818817  0.81282787  0.22528403     0.08200
H1286       H  0.54629672  0.81774507  0.27580534     0.08100
H1287       H  0.52990039  0.75275120  0.27978226     0.08100
H1288       H  0.51697601  0.77288650  0.25210626     0.04900
C1289       C  0.75232808  0.77912102  0.49336211    -0.20900
C1290       C  0.72402071  0.74153201  0.47645548    -0.07500
C1291       C  0.71198767  0.69155160  0.48127201     0.13400
C1292       C  0.72826701  0.68061179  0.50275358    -0.20900
C1293       C  0.75604940  0.71801780  0.51986277    -0.07500
C1294       C  0.76791542  0.76806338  0.51505046     0.13400
C1295       C  0.79478743  0.80972335  0.53303787    -0.24300
H1296       H  0.76134866  0.81737562  0.48980765     0.14700
H1297       H  0.71921995  0.64231173  0.50617953     0.14700
C1298       C  0.68322221  0.64962180  0.46361763    -0.24200
H1299       H  0.79727090  0.84529748  0.52704559     0.04900
H1300       H  0.83372419  0.81746414  0.53589367     0.08200
H1301       H  0.77403717  0.79882458  0.55012208     0.08200
H1302       H  0.70236765  0.65970708  0.44611057     0.08100
H1303       H  0.64432938  0.64255105  0.46162081     0.08100
H1304       H  0.68056582  0.61391823  0.46950551     0.04900
C1305       C  0.92765497  0.08442941  0.40528380    -0.20900
C1306       C  0.94021933  0.11215203  0.38405484    -0.07500
C1307       C  0.91385724  0.08867111  0.36285443     0.13400
C1308       C  0.87407548  0.03917257  0.36376961    -0.20900
C1309       C  0.86000137  0.01169143  0.38515064    -0.07500
C1310       C  0.88841906  0.03445502  0.40615523     0.13400
C1311       C  0.87802540  0.00739274  0.42965228    -0.24300
H1312       H  0.94891767  0.10201515  0.42138671     0.14700
H1313       H  0.85384896  0.02177098  0.34741964     0.14700
C1314       C  0.92827366  0.11444036  0.33897259    -0.24200
H1315       H  0.90403115  0.03169336  0.44396140     0.04900
H1316       H  0.88314449  0.97432366  0.42792187     0.08200
H1317       H  0.83925335  0.99549152  0.43540865     0.08200
H1318       H  0.96854213  0.12800335  0.33545769     0.08100
H1319       H  0.92111765  0.14633736  0.33869995     0.08100
H1320       H  0.90607514  0.08873500  0.32415777     0.04900
C1321       C  0.41321748  0.60726254  0.37079306    -0.20900
C1322       C  0.45372573  0.60389012  0.38036497    -0.07500
C1323       C  0.44625388  0.55639100  0.38709138     0.13400
C1324       C  0.39838671  0.51394285  0.38429703    -0.20900
C1325       C  0.35746215  0.51742672  0.37516414    -0.07500
C1326       C  0.36529020  0.56493327  0.36819481     0.13400
C1327       C  0.32326340  0.57199013  0.35895996    -0.24300
H1328       H  0.41891982  0.64365208  0.36564760     0.14700
H1329       H  0.39274664  0.47759064  0.38957925     0.14700
C1330       C  0.48841114  0.54967672  0.39666425    -0.24200
H1331       H  0.33573379  0.61218632  0.35573470     0.04900
H1332       H  0.29264635  0.55753612  0.37222917     0.08200
H1333       H  0.30909594  0.55171324  0.34179386     0.08200
H1334       H  0.50242768  0.56998293  0.41384907     0.08100
H1335       H  0.51946633  0.56410817  0.38359220     0.08100
H1336       H  0.47593577  0.50953237  0.40003985     0.04900
C1337       C  0.87508937  0.77370280  0.37482321    -0.20900
C1338       C  0.86924755  0.81290760  0.38395885    -0.07500
C1339       C  0.91255455  0.85835039  0.39120050     0.13400
C1340       C  0.96000240  0.86293744  0.38908361    -0.20900
C1341       C  0.96575294  0.82386990  0.37978001    -0.07500
C1342       C  0.92259220  0.77838475  0.37273049     0.13400
C1343       C  0.92577701  0.73382106  0.36382381    -0.24300
H1344       H  0.84213018  0.73890517  0.36936174     0.14700
H1345       H  0.99310816  0.89775615  0.39441757     0.14700
C1346       C  0.90989835  0.90309496  0.40037408    -0.24200
H1347       H  0.88798930  0.70040776  0.36091542     0.04900
H1348       H  0.94593773  0.72350924  0.37711330     0.08200
H1349       H  0.94558293  0.74271875  0.34651889     0.08200
H1350       H  0.88967162  0.89380829  0.41758171     0.08100
H1351       H  0.89057580  0.91444915  0.38709689     0.08100
H1352       H  0.94778994  0.93610257  0.40364977     0.04900
C1353       C  0.37449454  0.79462842  0.36679442    -0.20900
C1354       C  0.37554010  0.83382600  0.38021513    -0.07500
C1355       C  0.42141710  0.87034050  0.39065306     0.13400
C1356       C  0.46415964  0.86569740  0.38789295    -0.20900
C1357       C  0.46256617  0.82509075  0.37543392    -0.07500
C1358       C  0.41698752  0.78952149  0.36435628     0.13400
C1359       C  0.41175971  0.74495961  0.35073604    -0.24300
H1360       H  0.33959364  0.76669414  0.35855782     0.14700
H1361       H  0.49916315  0.89383675  0.39599975     0.14700
C1362       C  0.42627876  0.91468591  0.40440070    -0.24200
H1363       H  0.37274210  0.72007240  0.34418514     0.04900
H1364       H  0.42176008  0.72230419  0.36249893     0.08200
H1365       H  0.43661169  0.75799759  0.33496683     0.08200
H1366       H  0.40273599  0.90162906  0.42060893     0.08100
H1367       H  0.41460683  0.93653751  0.39296553     0.08100
H1368       H  0.46555355  0.94038894  0.41037052     0.04900
loop_ 
_geom_bond_atom_site_label_1 
_geom_bond_atom_site_label_2 
_geom_bond_distance 
_geom_bond_site_symmetry_2 
_ccdc_geom_bond_type 
Zr1           O2   2.438       .  S
Zr1           O3   2.410       .  S
Zr1           O4   2.439       .  S
Zr1           O7   2.419       .  S
Zr1           O9   2.376       .  S
Zr1          O10   2.389       .  S
Zr1          O11   2.391       .  S
Zr1          O12   2.403       .  S
O2           H58   0.990       .  S
O2           H66   0.990       .  S
O3           C23   1.279       .  A
O4           C25   1.285       .  A
O5          Zr15   2.427       .  S
O5           C24   1.284       .  A
O6          Zr14   2.437       .  S
O6           C25   1.285       .  A
O7           C24   1.281       .  A
O8          Zr16   2.430       .  S
O8           C23   1.285       .  A
O9          Zr14   2.384       .  S
O9          Zr16   2.368       .  S
O10         Zr15   2.391       .  S
O10         Zr16   2.382       .  S
O10          H45   0.967       .  S
O11         Zr14   2.389       .  S
O11         Zr31   2.392       .  S
O11          H48   0.967       .  S
O12         Zr15   2.391       .  S
O12         Zr31   2.389       .  S
Zr13         O38   2.441       .  S
Zr13         O32   2.460       .  S
Zr13         O40   2.462       .  S
Zr13         O28   2.426       .  S
Zr13         O19   2.389       .  S
Zr13         O20   2.425       .  S
Zr13         O21   2.382       .  S
Zr13         O22   2.388       .  S
Zr14         O33   2.436       .  S
Zr14         O26   2.433       .  S
Zr14         O27   2.423       .  S
Zr14         O20   2.401       .  S
Zr14         O21   2.397       .  S
Zr15         O17   2.436       .  S
Zr15         O39   2.442       .  S
Zr15         O41   2.438       .  S
Zr15         O19   2.375       .  S
Zr15         O22   2.390       .  S
Zr16         O42   2.435       .  S
Zr16         O43   2.435       .  S
Zr16         O18   2.438       .  S
Zr16         O19   2.379       .  S
Zr16         O20   2.405       .  S
O17          H54   0.990       .  S
O18          H49   0.990       .  S
O18          H63   0.990       .  S
O20          H46   0.966       .  S
O21         Zr31   2.377       .  S
O22         Zr31   2.397       .  S
O22          H47   0.966       .  S
C23        C1338   1.483       .  S
C24        C1309   1.488   1_565  S
C25        C1290   1.491       .  S
O26          H62   0.990       .  S
O27          C29   1.282       .  A
O28          C29   1.281       .  A
C29        C1322   1.480       .  S
O30         Zr31   2.434       .  S
O30          H59   0.990       .  S
Zr31         O34   2.434       .  S
Zr31         O35   2.439       .  S
Zr31         O36   2.394       .  S
O32          C37   1.287       .  A
O33          H50   0.990       .  S
O33          H65   0.990       .  S
O34          H51   0.990       .  S
O35          H55   0.991       .  S
O35          H64   0.990       .  S
O36          C37   1.277       .  A
C37        C1357   1.490       .  S
O38          H57   0.991       .  S
O38          H61   0.990       .  S
O39          H53   0.990       .  S
O39          H60   0.990       .  S
O40          C44   1.289       .  A
O41          C44   1.287       .  A
O42          H52   0.990       .  S
O43          H56   0.991       .  S
C44        C1274   1.493       .  S
Zr67         O68   2.438       .  S
Zr67         O69   2.420       .  S
Zr67         O70   2.443       .  S
Zr67         O73   2.430       .  S
Zr67         O75   2.380       .  S
Zr67         O76   2.383       .  S
Zr67         O77   2.395       .  S
Zr67         O78   2.391       .  S
O68         H124   0.990       .  S
O68         H132   0.990       .  S
O69          C89   1.282       .  A
O70          C91   1.286       .  A
O71         Zr81   2.424       .  S
O71          C90   1.283       .  A
O72         Zr80   2.436       .  S
O72          C91   1.287       .  A
O73          C90   1.285       .  A
O74         Zr82   2.431       .  S
O74          C89   1.283       .  A
O75         Zr80   2.389       .  S
O75         Zr82   2.364       .  S
O76         Zr81   2.390       .  S
O76         Zr82   2.381       .  S
O76         H111   0.965       .  S
O77         Zr80   2.399       .  S
O77         Zr97   2.392       .  S
O77         H114   0.967       .  S
O78         Zr81   2.388       .  S
O78         Zr97   2.378       .  S
Zr79        O104   2.445       .  S
Zr79         O98   2.439       .  S
Zr79        O106   2.442       .  S
Zr79         O94   2.411       .  S
Zr79         O85   2.386       .  S
Zr79         O86   2.416       .  S
Zr79         O87   2.382       .  S
Zr79         O88   2.384       .  S
Zr80         O99   2.437       .  S
Zr80         O92   2.435       .  S
Zr80         O93   2.438       .  S
Zr80         O86   2.397       .  S
Zr80         O87   2.391       .  S
Zr81         O83   2.438       .  S
Zr81        O105   2.441       .  S
Zr81        O107   2.430       .  S
Zr81         O85   2.381       .  S
Zr81         O88   2.389       .  S
Zr82        O108   2.435       .  S
Zr82        O109   2.435       .  S
Zr82         O84   2.438       .  S
Zr82         O85   2.381       .  S
Zr82         O86   2.406       .  S
O83         H120   0.990       .  S
O84         H115   0.990       .  S
O84         H129   0.990       .  S
O86         H112   0.966       .  S
O87         Zr97   2.376       .  S
O88         Zr97   2.395       .  S
O88         H113   0.965       .  S
C89        C1261   1.477       .  S
C90        C1226   1.478   1_655  S
C91        C1293   1.495       .  S
O92         H128   0.990       .  S
O93          C95   1.286       .  A
O94          C95   1.277       .  A
C95        C1210   1.472       .  S
O96         Zr97   2.439       .  S
O96         H125   0.991       .  S
Zr97        O100   2.436       .  S
Zr97        O101   2.439       .  S
Zr97        O102   2.395       .  S
O98         C103   1.284       .  A
O99         H116   0.990       .  S
O99         H131   0.990       .  S
O100        H117   0.990       .  S
O101        H121   0.990       .  S
O101        H130   0.990       .  S
O102        C103   1.279       .  A
C103       C1242   1.479       .  S
O104        H123   0.991       .  S
O104        H127   0.990       .  S
O105        H119   0.990       .  S
O105        H126   0.990       .  S
O106        C110   1.285       .  A
O107        C110   1.286       .  A
O108        H118   0.990       .  S
O109        H122   0.990       .  S
C110       C1194   1.485       .  S
Zr133       O134   2.439       .  S
Zr133       O135   2.408       .  S
Zr133       O136   2.437       .  S
Zr133       O139   2.430       .  S
Zr133       O141   2.379       .  S
Zr133       O142   2.386       .  S
Zr133       O143   2.398       .  S
Zr133       O144   2.386       .  S
O134        H190   0.990       .  S
O134        H198   0.990       .  S
O135        C155   1.281       .  A
O136        C157   1.284       .  A
O137       Zr147   2.422       .  S
O137        C156   1.282       .  A
O138       Zr146   2.426       .  S
O138        C157   1.285       .  A
O139        C156   1.286       .  A
O140       Zr148   2.432       .  S
O140        C155   1.283       .  A
O141       Zr146   2.390       .  S
O141       Zr148   2.366       .  S
O142       Zr147   2.392       .  S
O142       Zr148   2.378       .  S
O142        H177   0.965       .  S
O143       Zr146   2.403       .  S
O143       Zr163   2.394       .  S
O143        H180   0.967       .  S
O144       Zr147   2.392       .  S
O144       Zr163   2.373       .  S
Zr145       O170   2.444       .  S
Zr145       O164   2.457       .  S
Zr145       O172   2.434       .  S
Zr145       O160   2.408       .  S
Zr145       O151   2.389       .  S
Zr145       O152   2.424       .  S
Zr145       O153   2.376       .  S
Zr145       O154   2.381       .  S
Zr146       O165   2.434       .  S
Zr146       O158   2.434       .  S
Zr146       O159   2.438       .  S
Zr146       O152   2.397       .  S
Zr146       O153   2.394       .  S
Zr147       O149   2.436       .  S
Zr147       O171   2.441       .  S
Zr147       O173   2.444       .  S
Zr147       O151   2.368       .  S
Zr147       O154   2.397       .  S
Zr148       O174   2.437       .  S
Zr148       O175   2.438       .  S
Zr148       O150   2.437   1_565  S
Zr148       O151   2.380       .  S
Zr148       O152   2.411       .  S
O149        H186   0.990       .  S
O150        H181   0.990       .  S
O150        H195   0.990       .  S
O152        H178   0.966       .  S
O153       Zr163   2.385       .  S
O154       Zr163   2.397       .  S
O154        H179   0.966       .  S
C155       C1146   1.487   1_565  S
C156       C1341   1.479   1_455  S
C157       C1130   1.490       .  S
O158        H194   0.990       .  S
O159        C161   1.284       .  A
O160        C161   1.277       .  A
C161       C1354   1.485       .  S
O162       Zr163   2.434       .  S
O162        H191   0.990       .  S
Zr163       O166   2.435       .  S
Zr163       O167   2.439       .  S
Zr163       O168   2.384       .  S
O164        C169   1.287       .  A
O165        H182   0.990       .  S
O165        H197   0.990       .  S
O166        H183   0.990       .  S
O167        H187   0.990       .  S
O167        H196   0.990       .  S
O168        C169   1.275       .  A
C169       C1165   1.486       .  S
O170        H189   0.991       .  S
O170        H193   0.989       .  S
O171        H185   0.990       .  S
O171        H192   0.990       .  S
O172        C176   1.283       .  A
O173        C176   1.286       .  A
O174        H184   0.990       .  S
O175        H188   0.990       .  S
C176       C1181   1.475       .  S
Zr199       O200   2.439       .  S
Zr199       O201   2.415       .  S
Zr199       O202   2.424       .  S
Zr199       O205   2.436       .  S
Zr199       O207   2.378       .  S
Zr199       O208   2.382       .  S
Zr199       O209   2.400       .  S
Zr199       O210   2.389       .  S
O200        H256   0.991       .  S
O200        H264   0.990       .  S
O201        C221   1.282   1_545  A
O202        C223   1.282       .  A
O203       Zr213   2.414       .  S
O203        C222   1.282       .  A
O204       Zr212   2.435       .  S
O204        C223   1.285       .  A
O205        C222   1.285       .  A
O206       Zr214   2.429   1_565  S
O206        C221   1.281       .  A
O207       Zr212   2.390       .  S
O207       Zr214   2.365       .  S
O208       Zr213   2.396       .  S
O208       Zr214   2.381       .  S
O208        H243   0.965       .  S
O209       Zr212   2.399       .  S
O209       Zr229   2.391       .  S
O209        H246   0.967       .  S
O210       Zr213   2.391       .  S
O210       Zr229   2.378       .  S
Zr211       O236   2.442       .  S
Zr211       O230   2.448       .  S
Zr211       O238   2.465       .  S
Zr211       O226   2.413       .  S
Zr211       O217   2.383       .  S
Zr211       O218   2.419       .  S
Zr211       O219   2.378       .  S
Zr211       O220   2.383       .  S
Zr212       O231   2.438       .  S
Zr212       O224   2.435       .  S
Zr212       O225   2.439       .  S
Zr212       O218   2.398       .  S
Zr212       O219   2.384       .  S
Zr213       O215   2.438       .  S
Zr213       O237   2.439       .  S
Zr213       O239   2.440       .  S
Zr213       O217   2.379       .  S
Zr213       O220   2.391       .  S
Zr214       O240   2.436       .  S
Zr214       O241   2.433       .  S
Zr214       O216   2.437   1_545  S
Zr214       O217   2.383       .  S
Zr214       O218   2.408       .  S
O215        H252   0.990       .  S
O216        H247   0.990       .  S
O216        H261   0.990       .  S
O218        H244   0.966       .  S
O219       Zr229   2.377       .  S
O220       Zr229   2.401       .  S
O220        H245   0.966       .  S
C221       C1229   1.480       .  S
C222       C1117   1.483       .  S
C223       C1133   1.481       .  S
O224        H260   0.990       .  S
O225        C227   1.285       .  A
O226        C227   1.280       .  A
C227       C1098   1.490       .  S
O228       Zr229   2.441       .  S
O228        H257   0.990       .  S
Zr229       O232   2.439       .  S
Zr229       O233   2.438       .  S
Zr229       O234   2.388       .  S
O230        C235   1.286       .  A
O231        H248   0.990       .  S
O231        H263   0.990       .  S
O232        H249   0.990       .  S
O233        H253   0.989       .  S
O233        H262   0.990       .  S
O234        C235   1.275       .  A
C235       C1213   1.472       .  S
O236        H255   0.990       .  S
O236        H259   0.991       .  S
O237        H251   0.990       .  S
O237        H258   0.990       .  S
O238        C242   1.289       .  A
O239        C242   1.284       .  A
O240        H250   0.990   1_545  S
O241        H254   0.990       .  S
C242       C1085   1.508       .  S
Zr265       O266   2.441       .  S
Zr265       O267   2.399       .  S
Zr265       O268   2.432       .  S
Zr265       O271   2.424       .  S
Zr265       O273   2.378       .  S
Zr265       O274   2.387       .  S
Zr265       O275   2.392       .  S
Zr265       O276   2.390       .  S
O266        H322   0.990       .  S
O266        H330   0.990       .  S
O267        C287   1.279   1_455  A
O268        C289   1.283       .  A
O269       Zr279   2.428       .  S
O269        C288   1.285       .  A
O270       Zr278   2.435       .  S
O270        C289   1.287       .  A
O271        C288   1.283       .  A
O272       Zr280   2.428   1_655  S
O272        C287   1.283       .  A
O273       Zr278   2.388       .  S
O273       Zr280   2.365       .  S
O274       Zr279   2.383       .  S
O274       Zr280   2.380       .  S
O274        H309   0.965       .  S
O275       Zr278   2.396       .  S
O275       Zr295   2.385       .  S
O275        H312   0.967       .  S
O276       Zr279   2.390       .  S
O276       Zr295   2.376       .  S
Zr277       O302   2.444       .  S
Zr277       O296   2.460       .  S
Zr277       O304   2.442       .  S
Zr277       O292   2.419       .  S
Zr277       O283   2.394       .  S
Zr277       O284   2.420       .  S
Zr277       O285   2.380       .  S
Zr277       O286   2.383       .  S
Zr278       O297   2.434       .  S
Zr278       O290   2.435       .  S
Zr278       O291   2.431       .  S
Zr278       O284   2.399       .  S
Zr278       O285   2.393       .  S
Zr279       O281   2.434       .  S
Zr279       O303   2.442       .  S
Zr279       O305   2.430       .  S
Zr279       O283   2.381       .  S
Zr279       O286   2.392       .  S
Zr280       O306   2.437       .  S
Zr280       O307   2.436       .  S
Zr280       O282   2.435   1_455  S
Zr280       O283   2.388       .  S
Zr280       O284   2.398       .  S
O281        H318   0.990       .  S
O282        H313   0.990       .  S
O282        H327   0.990       .  S
O284        H310   0.966       .  S
O285       Zr295   2.379       .  S
O286       Zr295   2.396       .  S
O286        H311   0.965       .  S
C287       C1306   1.474       .  S
C288       C1149   1.481       .  S
C289       C1053   1.491       .  S
O290        H326   0.990       .  S
O291        C293   1.283       .  A
O292        C293   1.280       .  A
C293       C1162   1.475       .  S
O294       Zr295   2.433       .  S
O294        H323   0.990       .  S
Zr295       O298   2.434       .  S
Zr295       O299   2.436       .  S
Zr295       O300   2.385       .  S
O296        C301   1.288       .  A
O297        H314   0.990       .  S
O297        H329   0.990       .  S
O298        H315   0.990       .  S
O299        H319   0.990       .  S
O299        H328   0.990       .  S
O300        C301   1.275       .  A
C301       C1325   1.485       .  S
O302        H321   0.991       .  S
O302        H325   0.990       .  S
O303        H317   0.990       .  S
O303        H324   0.990       .  S
O304        C308   1.285       .  A
O305        C308   1.284       .  A
O306        H316   0.990   1_455  S
O307        H320   0.990       .  S
C308       C1066   1.476       .  S
Zr331       O332   2.438       .  S
Zr331       O333   2.407       .  S
Zr331       O334   2.441       .  S
Zr331       O337   2.423       .  S
Zr331       O339   2.378       .  S
Zr331       O340   2.390       .  S
Zr331       O341   2.393       .  S
Zr331       O342   2.394       .  S
O332        H388   0.990       .  S
O332        H396   0.990       .  S
O333        C353   1.280   1_655  A
O334        C355   1.286       .  A
O335       Zr345   2.427       .  S
O335        C354   1.284       .  A
O336       Zr344   2.425       .  S
O336        C355   1.283       .  A
O337        C354   1.283       .  A
O338       Zr346   2.430   1_455  S
O338        C353   1.283       .  A
O339       Zr344   2.384       .  S
O339       Zr346   2.362       .  S
O340       Zr345   2.392       .  S
O340       Zr346   2.381       .  S
O340        H375   0.966       .  S
O341       Zr344   2.400       .  S
O341       Zr361   2.390       .  S
O341        H378   0.967       .  S
O342       Zr345   2.391       .  S
O342       Zr361   2.376       .  S
Zr343       O368   2.443       .  S
Zr343       O362   2.460       .  S
Zr343       O370   2.458       .  S
Zr343       O358   2.428       .  S
Zr343       O349   2.391       .  S
Zr343       O350   2.420       .  S
Zr343       O351   2.380       .  S
Zr343       O352   2.385       .  S
Zr344       O363   2.435       .  S
Zr344       O356   2.435       .  S
Zr344       O357   2.423       .  S
Zr344       O350   2.396       .  S
Zr344       O351   2.391       .  S
Zr345       O347   2.437       .  S
Zr345       O369   2.440       .  S
Zr345       O371   2.441       .  S
Zr345       O349   2.377       .  S
Zr345       O352   2.393       .  S
Zr346       O372   2.434       .  S
Zr346       O373   2.437       .  S
Zr346       O348   2.438   1_655  S
Zr346       O349   2.383       .  S
Zr346       O350   2.409       .  S
O347        H384   0.990       .  S
O348        H379   0.990       .  S
O348        H393   0.990       .  S
O350        H376   0.966       .  S
O351       Zr361   2.382       .  S
O352       Zr361   2.398       .  S
O352        H377   0.965       .  S
C353       C1114   1.479       .  S
C354       C1258   1.483   1_545  S
C355       C1050   1.485       .  S
O356        H392   0.990       .  S
O357        C359   1.282       .  A
O358        C359   1.282       .  A
C359       C1245   1.484       .  S
O360       Zr361   2.440       .  S
O360        H389   0.991       .  S
Zr361       O364   2.436       .  S
Zr361       O365   2.439       .  S
Zr361       O366   2.382       .  S
O362        C367   1.288       .  A
O363        H380   0.990       .  S
O363        H395   0.990       .  S
O364        H381   0.990       .  S
O365        H385   0.990       .  S
O365        H394   0.990       .  S
O366        C367   1.276       .  A
C367       C1101   1.487       .  S
O368        H387   0.991       .  S
O368        H391   0.990       .  S
O369        H383   0.990       .  S
O369        H390   0.990       .  S
O370        C374   1.289       .  A
O371        C374   1.285       .  A
O372        H382   0.990   1_655  S
O373        H386   0.990       .  S
C374       C1034   1.502       .  S
Zr397       O398   2.435       .  S
Zr397       O399   2.411       .  S
Zr397       O400   2.443       .  S
Zr397       O403   2.425       .  S
Zr397       O405   2.373       .  S
Zr397       O406   2.386       .  S
Zr397       O407   2.397       .  S
Zr397       O408   2.398       .  S
O398        H454   0.989       .  S
O398        H462   0.989       .  S
O399        C419   1.280       .  A
O400        C421   1.287       .  A
O401       Zr411   2.422       .  S
O401        C420   1.283       .  A
O402       Zr410   2.440       .  S
O402        C421   1.287       .  A
O403        C420   1.284       .  A
O404       Zr412   2.427       .  S
O404        C419   1.284       .  A
O405       Zr410   2.381       .  S
O405       Zr412   2.364       .  S
O406       Zr411   2.391       .  S
O406       Zr412   2.374       .  S
O406        H441   0.966       .  S
O407       Zr410   2.392       .  S
O407       Zr427   2.394       .  S
O407        H444   0.967       .  S
O408       Zr411   2.393       .  S
O408       Zr427   2.388       .  S
Zr409       O434   2.443       .  S
Zr409       O428   2.468       .  S
Zr409       O436   2.433       .  S
Zr409       O424   2.413       .  S
Zr409       O415   2.391       .  S
Zr409       O416   2.420       .  S
Zr409       O417   2.376       .  S
Zr409       O418   2.379       .  S
Zr410       O429   2.435       .  S
Zr410       O422   2.434       .  S
Zr410       O423   2.427       .  S
Zr410       O416   2.402       .  S
Zr410       O417   2.392       .  S
Zr411       O413   2.437       .  S
Zr411       O435   2.440       .  S
Zr411       O437   2.438       .  S
Zr411       O415   2.380       .  S
Zr411       O418   2.390       .  S
Zr412       O438   2.436       .  S
Zr412       O439   2.435       .  S
Zr412       O414   2.437       .  S
Zr412       O415   2.383       .  S
Zr412       O416   2.401       .  S
O413        H450   0.990       .  S
O414        H445   0.990       .  S
O414        H459   0.990       .  S
O416        H442   0.967       .  S
O417       Zr427   2.377       .  S
O418       Zr427   2.394       .  S
O418        H443   0.966       .  S
C419       C1005   1.483       .  S
C420        C954   1.484   1_455  S
C421       C1021   1.493       .  S
O422        H458   0.990       .  S
O423        C425   1.283       .  A
O424        C425   1.280       .  A
C425        C973   1.473       .  S
O426       Zr427   2.438       .  S
O426        H455   0.990       .  S
Zr427       O430   2.439       .  S
Zr427       O431   2.439       .  S
Zr427       O432   2.386       .  S
O428        C433   1.289       .  A
O429        H446   0.990       .  S
O429        H461   0.990       .  S
O430        H447   0.990       .  S
O431        H451   0.990       .  S
O431        H460   0.990       .  S
O432        C433   1.276       .  A
C433        C989   1.492       .  S
O434        H453   0.991       .  S
O434        H457   0.990       .  S
O435        H449   0.990       .  S
O435        H456   0.990       .  S
O436        C440   1.283       .  A
O437        C440   1.284       .  A
O438        H448   0.990       .  S
O439        H452   0.990       .  S
C440       C1069   1.472       .  S
Zr463       O464   2.440       .  S
Zr463       O465   2.408       .  S
Zr463       O466   2.434       .  S
Zr463       O469   2.439       .  S
Zr463       O471   2.380       .  S
Zr463       O472   2.381       .  S
Zr463       O473   2.397       .  S
Zr463       O474   2.391       .  S
O464        H520   0.991       .  S
O464        H528   0.990       .  S
O465        C485   1.280       .  A
O466        C487   1.285       .  A
O467       Zr477   2.421       .  S
O467        C486   1.283       .  A
O468       Zr476   2.437       .  S
O468        C487   1.284       .  A
O469        C486   1.286       .  A
O470       Zr478   2.438       .  S
O470        C485   1.285       .  A
O471       Zr476   2.391       .  S
O471       Zr478   2.370       .  S
O472       Zr477   2.391       .  S
O472       Zr478   2.378       .  S
O472        H507   0.966       .  S
O473       Zr476   2.401       .  S
O473       Zr493   2.393       .  S
O473        H510   0.968       .  S
O474       Zr477   2.387       .  S
O474       Zr493   2.376       .  S
Zr475       O500   2.444       .  S
Zr475       O494   2.453       .  S
Zr475       O502   2.456       .  S
Zr475       O490   2.411       .  S
Zr475       O481   2.386       .  S
Zr475       O482   2.425       .  S
Zr475       O483   2.381       .  S
Zr475       O484   2.381       .  S
Zr476       O495   2.435       .  S
Zr476       O488   2.435       .  S
Zr476       O489   2.434       .  S
Zr476       O482   2.402       .  S
Zr476       O483   2.390       .  S
Zr477       O479   2.435       .  S
Zr477       O501   2.436       .  S
Zr477       O503   2.431       .  S
Zr477       O481   2.378       .  S
Zr477       O484   2.391       .  S
Zr478       O504   2.435       .  S
Zr478       O505   2.438       .  S
Zr478       O480   2.439       .  S
Zr478       O481   2.384       .  S
Zr478       O482   2.409       .  S
O479        H516   0.990       .  S
O480        H511   0.990       .  S
O480        H525   0.990       .  S
O482        H508   0.966       .  S
O483       Zr493   2.381       .  S
O484       Zr493   2.394       .  S
O484        H509   0.966       .  S
C485        C938   1.484       .  S
C486        C909   1.489   1_545  S
C487       C1018   1.494       .  S
O488        H524   0.990       .  S
O489        C491   1.285       .  A
O490        C491   1.277       .  A
C491        C890   1.470       .  S
O492       Zr493   2.439       .  S
O492        H521   0.990       .  S
Zr493       O496   2.437       .  S
Zr493       O497   2.440       .  S
Zr493       O498   2.384       .  S
O494        C499   1.286       .  A
O495        H512   0.990       .  S
O495        H527   0.990       .  S
O496        H513   0.990       .  S
O497        H517   0.990       .  S
O497        H526   0.990       .  S
O498        C499   1.275       .  A
C499        C922   1.482       .  S
O500        H519   0.990       .  S
O500        H523   0.990       .  S
O501        H515   0.990       .  S
O501        H522   0.990       .  S
O502        C506   1.287       .  A
O503        C506   1.285       .  A
O504        H514   0.990       .  S
O505        H518   0.990       .  S
C506       C1082   1.484       .  S
Zr529       O530   2.440       .  S
Zr529       O531   2.418       .  S
Zr529       O532   2.423       .  S
Zr529       O535   2.425       .  S
Zr529       O537   2.380       .  S
Zr529       O538   2.384       .  S
Zr529       O539   2.400       .  S
Zr529       O540   2.389       .  S
O530        H586   0.991       .  S
O530        H594   0.990       .  S
O531        C551   1.281       .  A
O532        C553   1.282       .  A
O533       Zr543   2.414       .  S
O533        C552   1.280       .  A
O534       Zr542   2.436       .  S
O534        C553   1.285       .  A
O535        C552   1.285       .  A
O536       Zr544   2.434       .  S
O536        C551   1.284       .  A
O537       Zr542   2.389       .  S
O537       Zr544   2.365       .  S
O538       Zr543   2.391       .  S
O538       Zr544   2.380       .  S
O538        H573   0.965       .  S
O539       Zr542   2.403       .  S
O539       Zr559   2.397       .  S
O539        H576   0.967       .  S
O540       Zr543   2.393       .  S
O540       Zr559   2.381       .  S
Zr541       O566   2.442       .  S
Zr541       O560   2.449       .  S
Zr541       O568   2.447       .  S
Zr541       O556   2.416       .  S
Zr541       O547   2.382       .  S
Zr541       O548   2.422       .  S
Zr541       O549   2.381       .  S
Zr541       O550   2.383       .  S
Zr542       O561   2.437       .  S
Zr542       O554   2.434       .  S
Zr542       O555   2.442       .  S
Zr542       O548   2.396       .  S
Zr542       O549   2.392       .  S
Zr543       O545   2.435       .  S
Zr543       O567   2.440       .  S
Zr543       O569   2.438       .  S
Zr543       O547   2.371       .  S
Zr543       O550   2.396       .  S
Zr544       O570   2.436       .  S
Zr544       O571   2.435       .  S
Zr544       O546   2.437   1_455  S
Zr544       O547   2.377       .  S
Zr544       O548   2.410       .  S
O545        H582   0.990       .  S
O546        H577   0.991       .  S
O546        H591   0.990       .  S
O548        H574   0.965       .  S
O549       Zr559   2.379       .  S
O550       Zr559   2.398       .  S
O550        H575   0.965       .  S
C551        C861   1.475   1_455  S
C552       C1002   1.478   1_565  S
C553        C842   1.483       .  S
O554        H590   0.990       .  S
O555        C557   1.286       .  A
O556        C557   1.279       .  A
C557        C986   1.487       .  S
O558       Zr559   2.441       .  S
O558        H587   0.991       .  S
Zr559       O562   2.440       .  S
Zr559       O563   2.439       .  S
Zr559       O564   2.394       .  S
O560        C565   1.285       .  A
O561        H578   0.990       .  S
O561        H593   0.990       .  S
O562        H579   0.990       .  S
O563        H583   0.990       .  S
O563        H592   0.990       .  S
O564        C565   1.277       .  A
C565        C877   1.479       .  S
O566        H585   0.991       .  S
O566        H589   0.989       .  S
O567        H581   0.990       .  S
O567        H588   0.990       .  S
O568        C572   1.287       .  A
O569        C572   1.284       .  A
O570        H580   0.990       .  S
O571        H584   0.990       .  S
C572       C1178   1.500       .  S
Zr595       O596   2.441       .  S
Zr595       O597   2.420       .  S
Zr595       O598   2.431       .  S
Zr595       O601   2.427       .  S
Zr595       O603   2.381       .  S
Zr595       O604   2.384       .  S
Zr595       O605   2.399       .  S
Zr595       O606   2.392       .  S
O596        H652   0.990       .  S
O596        H660   0.990       .  S
O597        C617   1.282   1_655  A
O598        C619   1.283       .  A
O599       Zr609   2.429       .  S
O599        C618   1.284       .  A
O600       Zr608   2.431       .  S
O600        C619   1.286       .  A
O601        C618   1.283       .  A
O602       Zr610   2.426   1_455  S
O602        C617   1.282       .  A
O603       Zr608   2.390       .  S
O603       Zr610   2.366       .  S
O604       Zr609   2.391       .  S
O604       Zr610   2.383       .  S
O604        H639   0.966       .  S
O605       Zr608   2.398       .  S
O605       Zr625   2.393       .  S
O605        H642   0.966       .  S
O606       Zr609   2.386       .  S
O606       Zr625   2.382       .  S
Zr607       O632   2.440       .  S
Zr607       O626   2.442       .  S
Zr607       O634   2.427       .  S
Zr607       O622   2.414       .  S
Zr607       O613   2.388       .  S
Zr607       O614   2.413       .  S
Zr607       O615   2.375       .  S
Zr607       O616   2.382       .  S
Zr608       O627   2.435       .  S
Zr608       O620   2.437       .  S
Zr608       O621   2.435       .  S
Zr608       O614   2.394       .  S
Zr608       O615   2.389       .  S
Zr609       O611   2.435       .  S
Zr609       O633   2.441       .  S
Zr609       O635   2.436       .  S
Zr609       O613   2.378       .  S
Zr609       O616   2.392       .  S
Zr610       O636   2.432       .  S
Zr610       O637   2.435       .  S
Zr610       O612   2.439   1_655  S
Zr610       O613   2.382       .  S
Zr610       O614   2.401       .  S
O611        H648   0.990       .  S
O612        H643   0.990       .  S
O612        H657   0.990       .  S
O614        H640   0.966       .  S
O615       Zr625   2.374       .  S
O616       Zr625   2.392       .  S
O616        H641   0.965       .  S
C617        C906   1.481       .  S
C618        C813   1.482       .  S
C619        C845   1.488       .  S
O620        H656   0.990       .  S
O621        C623   1.286       .  A
O622        C623   1.278       .  A
C623        C826   1.472       .  S
O624       Zr625   2.436       .  S
O624        H653   0.990       .  S
Zr625       O628   2.437       .  S
Zr625       O629   2.437       .  S
Zr625       O630   2.405       .  S
O626        C631   1.284       .  A
O627        H644   0.990       .  S
O627        H659   0.990       .  S
O628        H645   0.990       .  S
O629        H649   0.990       .  S
O629        H658   0.990       .  S
O630        C631   1.278       .  A
C631        C893   1.469       .  S
O632        H651   0.991       .  S
O632        H655   0.990       .  S
O633        H647   0.990       .  S
O633        H654   0.990       .  S
O634        C638   1.283       .  A
O635        C638   1.284       .  A
O636        H646   0.990       .  S
O637        H650   0.991       .  S
C638       C1197   1.496       .  S
Zr661       O662   2.441       .  S
Zr661       O663   2.412       .  S
Zr661       O664   2.445       .  S
Zr661       O667   2.423       .  S
Zr661       O669   2.378       .  S
Zr661       O670   2.388       .  S
Zr661       O671   2.400       .  S
Zr661       O672   2.391       .  S
O662        H718   0.990       .  S
O662        H726   0.990       .  S
O663        C683   1.281       .  A
O664        C685   1.285       .  A
O665       Zr675   2.434       .  S
O665        C684   1.284       .  A
O666       Zr674   2.443       .  S
O666        C685   1.287       .  A
O667        C684   1.283       .  A
O668       Zr676   2.420       .  S
O668        C683   1.281       .  A
O669       Zr674   2.391       .  S
O669       Zr676   2.373       .  S
O670       Zr675   2.391       .  S
O670       Zr676   2.383       .  S
O670        H705   0.966       .  S
O671       Zr674   2.396       .  S
O671       Zr691   2.397       .  S
O671        H708   0.966       .  S
O672       Zr675   2.394       .  S
O672       Zr691   2.379       .  S
Zr673       O698   2.443       .  S
Zr673       O692   2.439       .  S
Zr673       O700   2.431       .  S
Zr673       O688   2.423       .  S
Zr673       O679   2.385       .  S
Zr673       O680   2.419       .  S
Zr673       O681   2.381       .  S
Zr673       O682   2.384       .  S
Zr674       O693   2.435       .  S
Zr674       O686   2.433       .  S
Zr674       O687   2.435       .  S
Zr674       O680   2.402       .  S
Zr674       O681   2.394       .  S
Zr675       O677   2.438       .  S
Zr675       O699   2.440       .  S
Zr675       O701   2.460       .  S
Zr675       O679   2.375       .  S
Zr675       O682   2.394       .  S
Zr676       O702   2.438       .  S
Zr676       O703   2.436       .  S
Zr676       O678   2.434   1_565  S
Zr676       O679   2.374       .  S
Zr676       O680   2.406       .  S
O677        H714   0.990       .  S
O678        H709   0.990       .  S
O678        H723   0.990       .  S
O680        H706   0.966       .  S
O681       Zr691   2.379       .  S
O682       Zr691   2.394       .  S
O682        H707   0.965       .  S
C683        C957   1.474   1_565  S
C684        C858   1.472       .  S
C685        C794   1.502       .  S
O686        H722   0.990       .  S
O687        C689   1.284       .  A
O688        C689   1.280       .  A
C689        C874   1.480       .  S
O690       Zr691   2.432       .  S
O690        H719   0.990       .  S
Zr691       O694   2.437       .  S
Zr691       O695   2.436       .  S
Zr691       O696   2.393       .  S
O692        C697   1.283       .  A
O693        H710   0.990       .  S
O693        H725   0.990       .  S
O694        H711   0.990       .  S
O695        H715   0.990       .  S
O695        H724   0.990       .  S
O696        C697   1.277       .  A
C697        C970   1.477       .  S
O698        H717   0.991       .  S
O698        H721   0.990       .  S
O699        H713   0.990       .  S
O699        H720   0.990       .  S
O700        C704   1.284       .  A
O701        C704   1.289       .  A
O702        H712   0.990       .  S
O703        H716   0.990       .  S
C704       C1277   1.500       .  S
Zr727       O728   2.436       .  S
Zr727       O729   2.404       .  S
Zr727       O730   2.448       .  S
Zr727       O733   2.439       .  S
Zr727       O735   2.382       .  S
Zr727       O736   2.386       .  S
Zr727       O737   2.397       .  S
Zr727       O738   2.391       .  S
O728        H784   0.990       .  S
O728        H792   0.990       .  S
O729        C749   1.280   1_545  A
O730        C751   1.288       .  A
O731       Zr741   2.413       .  S
O731        C750   1.281       .  A
O732       Zr740   2.431       .  S
O732        C751   1.284       .  A
O733        C750   1.286       .  A
O734       Zr742   2.439   1_565  S
O734        C749   1.284       .  A
O735       Zr740   2.391       .  S
O735       Zr742   2.367       .  S
O736       Zr741   2.392       .  S
O736       Zr742   2.376       .  S
O736        H771   0.965       .  S
O737       Zr740   2.395       .  S
O737       Zr757   2.396       .  S
O737        H774   0.967       .  S
O738       Zr741   2.389       .  S
O738       Zr757   2.374       .  S
Zr739       O764   2.440       .  S
Zr739       O758   2.446       .  S
Zr739       O766   2.455       .  S
Zr739       O754   2.413       .  S
Zr739       O745   2.397       .  S
Zr739       O746   2.418       .  S
Zr739       O747   2.375       .  S
Zr739       O748   2.381       .  S
Zr740       O759   2.434       .  S
Zr740       O752   2.434       .  S
Zr740       O753   2.433       .  S
Zr740       O746   2.397       .  S
Zr740       O747   2.385       .  S
Zr741       O743   2.438       .  S
Zr741       O765   2.444       .  S
Zr741       O767   2.427       .  S
Zr741       O745   2.387       .  S
Zr741       O748   2.391       .  S
Zr742       O768   2.436       .  S
Zr742       O769   2.436       .  S
Zr742       O744   2.437   1_545  S
Zr742       O745   2.392       .  S
Zr742       O746   2.411       .  S
O743        H780   0.990   1_655  S
O744        H775   0.990       .  S
O744        H789   0.990       .  S
O746        H772   0.967       .  S
O747       Zr757   2.379       .  S
O748       Zr757   2.394       .  S
O748        H773   0.966       .  S
C749        C810   1.486       .  S
C750        C941   1.482   1_655  S
C751        C797   1.493       .  S
O752        H788   0.990       .  S
O753        C755   1.283       .  A
O754        C755   1.280       .  A
C755        C925   1.488       .  S
O756       Zr757   2.439       .  S
O756        H785   0.990       .  S
Zr757       O760   2.435       .  S
Zr757       O761   2.440       .  S
Zr757       O762   2.398       .  S
O758        C763   1.285       .  A
O759        H776   0.990       .  S
O759        H791   0.990       .  S
O760        H777   0.990       .  S
O761        H781   0.989       .  S
O761        H790   0.989       .  S
O762        C763   1.277       .  A
C763        C829   1.476       .  S
O764        H783   0.990       .  S
O764        H787   0.990       .  S
O765        H779   0.990       .  S
O765        H786   0.990       .  S
O766        C770   1.287       .  A
O767        C770   1.285       .  A
O768        H778   0.990       .  S
O769        H782   0.990       .  S
C770       C1037   1.489       .  S
C793        C794   1.409       .  A
C793        C798   1.409   1_554  A
C793        H800   1.084       .  S
C794        C795   1.422       .  A
C795        C796   1.408   1_564  A
C795        C802   1.506   1_565  S
C796        C797   1.404       .  A
C796        H801   1.084       .  S
C797        C798   1.418   1_545  A
C798        C799   1.508       .  S
C799        H803   1.111       .  S
C799        H804   1.111       .  S
C799        H805   1.109   1_565  S
C802        H806   1.109   1_545  S
C802        H807   1.110       .  S
C802        H808   1.111       .  S
C809        C810   1.408       .  A
C809        C814   1.402       .  A
C809        H816   1.082       .  S
C810        C811   1.416       .  A
C811        C812   1.403       .  A
C811        C818   1.508       .  S
C812        C813   1.406       .  A
C812        H817   1.084       .  S
C813        C814   1.414       .  A
C814        C815   1.509       .  S
C815        H819   1.110       .  S
C815        H820   1.111       .  S
C815        H821   1.109       .  S
C818        H822   1.110       .  S
C818        H823   1.110       .  S
C818        H824   1.111       .  S
C825        C826   1.399       .  A
C825        C830   1.400       .  A
C825        H832   1.084       .  S
C826        C827   1.416       .  A
C827        C828   1.403       .  A
C827        C834   1.509       .  S
C828        C829   1.403       .  A
C828        H833   1.084       .  S
C829        C830   1.416       .  A
C830        C831   1.507       .  S
C831        H835   1.111       .  S
C831        H836   1.110       .  S
C831        H837   1.108       .  S
C834        H838   1.108       .  S
C834        H839   1.110       .  S
C834        H840   1.111       .  S
C841        C842   1.403       .  A
C841        C846   1.403   1_554  A
C841        H848   1.084       .  S
C842        C843   1.414       .  A
C843        C844   1.405   1_454  A
C843        C850   1.508   1_455  S
C844        C845   1.407       .  A
C844        H849   1.084       .  S
C845        C846   1.420   1_655  A
C846        C847   1.509       .  S
C847        H851   1.111       .  S
C847        H852   1.108       .  S
C847        H853   1.111       .  S
C850        H854   1.111       .  S
C850        H855   1.109   1_655  S
C850        H856   1.111       .  S
C857        C858   1.401       .  A
C857        C862   1.402       .  A
C857        H864   1.085       .  S
C858        C859   1.412       .  A
C859        C860   1.402       .  A
C859        C866   1.507       .  S
C860        C861   1.402       .  A
C860        H865   1.084       .  S
C861        C862   1.416       .  A
C862        C863   1.507   1_655  S
C863        H867   1.111       .  S
C863        H868   1.109       .  S
C863        H869   1.111       .  S
C866        H870   1.111       .  S
C866        H871   1.109       .  S
C866        H872   1.111       .  S
C873        C874   1.406       .  A
C873        C878   1.404       .  A
C873        H880   1.081       .  S
C874        C875   1.413       .  A
C875        C876   1.401       .  A
C875        C882   1.507       .  S
C876        C877   1.405       .  A
C876        H881   1.084       .  S
C877        C878   1.414       .  A
C878        C879   1.507       .  S
C879        H883   1.111       .  S
C879        H884   1.111       .  S
C879        H885   1.108       .  S
C882        H886   1.109       .  S
C882        H887   1.110       .  S
C882        H888   1.111       .  S
C889        C890   1.399       .  A
C889        C894   1.398       .  A
C889        H896   1.085       .  S
C890        C891   1.416       .  A
C891        C892   1.403       .  A
C891        C898   1.508       .  S
C892        C893   1.400       .  A
C892        H897   1.084       .  S
C893        C894   1.416       .  A
C894        C895   1.508       .  S
C895        H899   1.110       .  S
C895        H900   1.107       .  S
C895        H901   1.111       .  S
C898        H902   1.110       .  S
C898        H903   1.107       .  S
C898        H904   1.111       .  S
C905        C906   1.403       .  A
C905        C910   1.403       .  A
C905        H912   1.083       .  S
C906        C907   1.416       .  A
C907        C908   1.402       .  A
C907        C914   1.510       .  S
C908        C909   1.408       .  A
C908        H913   1.084       .  S
C909        C910   1.418       .  A
C910        C911   1.506       .  S
C911        H915   1.111       .  S
C911        H916   1.109   1_565  S
C911        H917   1.110       .  S
C914        H918   1.111       .  S
C914        H919   1.110       .  S
C914        H920   1.111       .  S
C921        C922   1.408       .  A
C921        C926   1.401       .  A
C921        H928   1.084       .  S
C922        C923   1.411       .  A
C923        C924   1.402       .  A
C923        C930   1.508       .  S
C924        C925   1.410       .  A
C924        H929   1.083       .  S
C925        C926   1.416       .  A
C926        C927   1.509       .  S
C927        H931   1.111       .  S
C927        H932   1.110       .  S
C927        H933   1.110       .  S
C930        H934   1.110       .  S
C930        H935   1.110       .  S
C930        H936   1.111       .  S
C937        C938   1.408       .  A
C937        C942   1.401       .  A
C937        H944   1.084       .  S
C938        C939   1.415       .  A
C939        C940   1.403       .  A
C939        C946   1.508       .  S
C940        C941   1.407       .  A
C940        H945   1.084       .  S
C941        C942   1.413       .  A
C942        C943   1.507       .  S
C943        H947   1.110       .  S
C943        H948   1.110   1_455  S
C943        H949   1.109   1_455  S
C946        H950   1.109       .  S
C946        H951   1.110       .  S
C946        H952   1.111       .  S
C953        C954   1.408       .  A
C953        C958   1.401       .  A
C953        H960   1.084       .  S
C954        C955   1.417       .  A
C955        C956   1.398       .  A
C955        C962   1.507       .  S
C956        C957   1.401       .  A
C956        H961   1.082       .  S
C957        C958   1.414       .  A
C958        C959   1.509       .  S
C959        H963   1.111       .  S
C959        H964   1.111       .  S
C959        H965   1.109       .  S
C962        H966   1.110   1_655  S
C962        H967   1.110       .  S
C962        H968   1.111       .  S
C969        C970   1.407       .  A
C969        C974   1.400       .  A
C969        H976   1.084       .  S
C970        C971   1.413       .  A
C971        C972   1.397       .  A
C971        C978   1.506       .  S
C972        C973   1.403       .  A
C972        H977   1.083       .  S
C973        C974   1.412       .  A
C974        C975   1.507       .  S
C975        H979   1.111       .  S
C975        H980   1.109       .  S
C975        H981   1.110       .  S
C978        H982   1.111       .  S
C978        H983   1.108       .  S
C978        H984   1.109       .  S
C985        C986   1.410       .  A
C985        C990   1.408       .  A
C985        H992   1.083       .  S
C986        C987   1.412       .  A
C987        C988   1.400       .  A
C987        C994   1.509       .  S
C988        C989   1.410       .  A
C988        H993   1.084       .  S
C989        C990   1.414       .  A
C990        C991   1.506       .  S
C991        H995   1.111       .  S
C991        H996   1.109       .  S
C991        H997   1.110       .  S
C994        H998   1.109       .  S
C994        H999   1.110       .  S
C994       H1000   1.111       .  S
C1001      C1002   1.401       .  A
C1001      C1006   1.401       .  A
C1001      H1008   1.082   1_545  S
C1002      C1003   1.417       .  A
C1003      C1004   1.400       .  A
C1003      C1010   1.510       .  S
C1004      C1005   1.405       .  A
C1004      H1009   1.084       .  S
C1005      C1006   1.419       .  A
C1006      C1007   1.510       .  S
C1007      H1011   1.111       .  S
C1007      H1012   1.110       .  S
C1007      H1013   1.111       .  S
C1010      H1014   1.111       .  S
C1010      H1015   1.109       .  S
C1010      H1016   1.111       .  S
C1017      C1018   1.406       .  A
C1017      C1022   1.405   1_556  A
C1017      H1024   1.084       .  S
C1018      C1019   1.419       .  A
C1019      C1020   1.407   1_556  A
C1019      C1026   1.507       .  S
C1020      C1021   1.406       .  A
C1020      H1025   1.084       .  S
C1021      C1022   1.417       .  A
C1022      C1023   1.505       .  S
C1023      H1027   1.111   1_554  S
C1023      H1028   1.109       .  S
C1023      H1029   1.108       .  S
C1026      H1030   1.109       .  S
C1026      H1031   1.110       .  S
C1026      H1032   1.111   1_556  S
C1033      C1034   1.410       .  A
C1033      C1038   1.408       .  A
C1033      H1040   1.083       .  S
C1034      C1035   1.424       .  A
C1035      C1036   1.402       .  A
C1035      C1042   1.508       .  S
C1036      C1037   1.403       .  A
C1036      H1041   1.084       .  S
C1037      C1038   1.415       .  A
C1038      C1039   1.505       .  S
C1039      H1043   1.111       .  S
C1039      H1044   1.110       .  S
C1039      H1045   1.106       .  S
C1042      H1046   1.110       .  S
C1042      H1047   1.109       .  S
C1042      H1048   1.111       .  S
C1049      C1050   1.404       .  A
C1049      C1054   1.406       .  A
C1049      H1056   1.084       .  S
C1050      C1051   1.416   1_655  A
C1051      C1052   1.404       .  A
C1051      C1058   1.508       .  S
C1052      C1053   1.406       .  A
C1052      H1057   1.084       .  S
C1053      C1054   1.421   1_455  A
C1054      C1055   1.509       .  S
C1055      H1059   1.111       .  S
C1055      H1060   1.108   1_655  S
C1055      H1061   1.111       .  S
C1058      H1062   1.110       .  S
C1058      H1063   1.109   1_455  S
C1058      H1064   1.111       .  S
C1065      C1066   1.401       .  A
C1065      C1070   1.402       .  A
C1065      H1072   1.085       .  S
C1066      C1067   1.415       .  A
C1067      C1068   1.404       .  A
C1067      C1074   1.507       .  S
C1068      C1069   1.400       .  A
C1068      H1073   1.084       .  S
C1069      C1070   1.417       .  A
C1070      C1071   1.509       .  S
C1071      H1075   1.111       .  S
C1071      H1076   1.110       .  S
C1071      H1077   1.106       .  S
C1074      H1078   1.110       .  S
C1074      H1079   1.110       .  S
C1074      H1080   1.111       .  S
C1081      C1082   1.400       .  A
C1081      C1086   1.404       .  A
C1081      H1088   1.085       .  S
C1082      C1083   1.410       .  A
C1083      C1084   1.410       .  A
C1083      C1090   1.506       .  S
C1084      C1085   1.414       .  A
C1084      H1089   1.083       .  S
C1085      C1086   1.426       .  A
C1086      C1087   1.508       .  S
C1087      H1091   1.111       .  S
C1087      H1092   1.108       .  S
C1087      H1093   1.110       .  S
C1090      H1094   1.110       .  S
C1090      H1095   1.109       .  S
C1090      H1096   1.111       .  S
C1097      C1098   1.411       .  A
C1097      C1102   1.405       .  A
C1097      H1104   1.083       .  S
C1098      C1099   1.415       .  A
C1099      C1100   1.401       .  A
C1099      C1106   1.509       .  S
C1100      C1101   1.409       .  A
C1100      H1105   1.084       .  S
C1101      C1102   1.412       .  A
C1102      C1103   1.507       .  S
C1103      H1107   1.111       .  S
C1103      H1108   1.110       .  S
C1103      H1109   1.110       .  S
C1106      H1110   1.111       .  S
C1106      H1111   1.109       .  S
C1106      H1112   1.111       .  S
C1113      C1114   1.405       .  A
C1113      C1118   1.403       .  A
C1113      H1120   1.084       .  S
C1114      C1115   1.415       .  A
C1115      C1116   1.398       .  A
C1115      C1122   1.508       .  S
C1116      C1117   1.405       .  A
C1116      H1121   1.084       .  S
C1117      C1118   1.416       .  A
C1118      C1119   1.506       .  S
C1119      H1123   1.111       .  S
C1119      H1124   1.109       .  S
C1119      H1125   1.110       .  S
C1122      H1126   1.111       .  S
C1122      H1127   1.109       .  S
C1122      H1128   1.111       .  S
C1129      C1130   1.407       .  A
C1129      C1134   1.402       .  A
C1129      H1136   1.084       .  S
C1130      C1131   1.420       .  A
C1131      C1132   1.405   1_565  A
C1131      C1138   1.508   1_565  S
C1132      C1133   1.405       .  A
C1132      H1137   1.084       .  S
C1133      C1134   1.412   1_545  A
C1134      C1135   1.508       .  S
C1135      H1139   1.111       .  S
C1135      H1140   1.111       .  S
C1135      H1141   1.109       .  S
C1138      H1142   1.109   1_545  S
C1138      H1143   1.110       .  S
C1138      H1144   1.111       .  S
C1145      C1146   1.409       .  A
C1145      C1150   1.401       .  A
C1145      H1152   1.084       .  S
C1146      C1147   1.418       .  A
C1147      C1148   1.402       .  A
C1147      C1154   1.509       .  S
C1148      C1149   1.404       .  A
C1148      H1153   1.084       .  S
C1149      C1150   1.415       .  A
C1150      C1151   1.510       .  S
C1151      H1155   1.111       .  S
C1151      H1156   1.111       .  S
C1151      H1157   1.109       .  S
C1154      H1158   1.109       .  S
C1154      H1159   1.110       .  S
C1154      H1160   1.111       .  S
C1161      C1162   1.403       .  A
C1161      C1166   1.400       .  A
C1161      H1168   1.082       .  S
C1162      C1163   1.410       .  A
C1163      C1164   1.402       .  A
C1163      C1170   1.507       .  S
C1164      C1165   1.411       .  A
C1164      H1169   1.084       .  S
C1165      C1166   1.415       .  A
C1166      C1167   1.506       .  S
C1167      H1171   1.111       .  S
C1167      H1172   1.110       .  S
C1167      H1173   1.108       .  S
C1170      H1174   1.109       .  S
C1170      H1175   1.110       .  S
C1170      H1176   1.111       .  S
C1177      C1178   1.413       .  A
C1177      C1182   1.405       .  A
C1177      H1184   1.083       .  S
C1178      C1179   1.424       .  A
C1179      C1180   1.404       .  A
C1179      C1186   1.507       .  S
C1180      C1181   1.400       .  A
C1180      H1185   1.085       .  S
C1181      C1182   1.408       .  A
C1182      C1183   1.507       .  S
C1183      H1187   1.111       .  S
C1183      H1188   1.110       .  S
C1183      H1189   1.109       .  S
C1186      H1190   1.107       .  S
C1186      H1191   1.110       .  S
C1186      H1192   1.111       .  S
C1193      C1194   1.403       .  A
C1193      C1198   1.400       .  A
C1193      H1200   1.084       .  S
C1194      C1195   1.413       .  A
C1195      C1196   1.407       .  A
C1195      C1202   1.507       .  S
C1196      C1197   1.412       .  A
C1196      H1201   1.083       .  S
C1197      C1198   1.421       .  A
C1198      C1199   1.509       .  S
C1199      H1203   1.111       .  S
C1199      H1204   1.110       .  S
C1199      H1205   1.110       .  S
C1202      H1206   1.110       .  S
C1202      H1207   1.107       .  S
C1202      H1208   1.111       .  S
C1209      C1210   1.400       .  A
C1209      C1214   1.400       .  A
C1209      H1216   1.084       .  S
C1210      C1211   1.416       .  A
C1211      C1212   1.402       .  A
C1211      C1218   1.509       .  S
C1212      C1213   1.402       .  A
C1212      H1217   1.085       .  S
C1213      C1214   1.416       .  A
C1214      C1215   1.507       .  S
C1215      H1219   1.111       .  S
C1215      H1220   1.111       .  S
C1215      H1221   1.107       .  S
C1218      H1222   1.109       .  S
C1218      H1223   1.110       .  S
C1218      H1224   1.111       .  S
C1225      C1226   1.407       .  A
C1225      C1230   1.405       .  A
C1225      H1232   1.084       .  S
C1226      C1227   1.413       .  A
C1227      C1228   1.398       .  A
C1227      C1234   1.509   1_455  S
C1228      C1229   1.405       .  A
C1228      H1233   1.084       .  S
C1229      C1230   1.416       .  A
C1230      C1231   1.508       .  S
C1231      H1235   1.111       .  S
C1231      H1236   1.109       .  S
C1231      H1237   1.111       .  S
C1234      H1238   1.110       .  S
C1234      H1239   1.110       .  S
C1234      H1240   1.111   1_655  S
C1241      C1242   1.405       .  A
C1241      C1246   1.398       .  A
C1241      H1248   1.084       .  S
C1242      C1243   1.413       .  A
C1243      C1244   1.405       .  A
C1243      C1250   1.508       .  S
C1244      C1245   1.409       .  A
C1244      H1249   1.084       .  S
C1245      C1246   1.415       .  A
C1246      C1247   1.509       .  S
C1247      H1251   1.111       .  S
C1247      H1252   1.110       .  S
C1247      H1253   1.110       .  S
C1250      H1254   1.110       .  S
C1250      H1255   1.110       .  S
C1250      H1256   1.111       .  S
C1257      C1258   1.406       .  A
C1257      C1262   1.400       .  A
C1257      H1264   1.084       .  S
C1258      C1259   1.418       .  A
C1259      C1260   1.402       .  A
C1259      C1266   1.506       .  S
C1260      C1261   1.401       .  A
C1260      H1265   1.082       .  S
C1261      C1262   1.414       .  A
C1262      C1263   1.508       .  S
C1263      H1267   1.111       .  S
C1263      H1268   1.111       .  S
C1263      H1269   1.109       .  S
C1266      H1270   1.108       .  S
C1266      H1271   1.111       .  S
C1266      H1272   1.111       .  S
C1273      C1274   1.406       .  A
C1273      C1278   1.404       .  A
C1273      H1280   1.084       .  S
C1274      C1275   1.414       .  A
C1275      C1276   1.408       .  A
C1275      C1282   1.506       .  S
C1276      C1277   1.412       .  A
C1276      H1281   1.083       .  S
C1277      C1278   1.420       .  A
C1278      C1279   1.508       .  S
C1279      H1283   1.111       .  S
C1279      H1284   1.110       .  S
C1279      H1285   1.110       .  S
C1282      H1286   1.111       .  S
C1282      H1287   1.106       .  S
C1282      H1288   1.111       .  S
C1289      C1290   1.405       .  A
C1289      C1294   1.408       .  A
C1289      H1296   1.084       .  S
C1290      C1291   1.416       .  A
C1291      C1292   1.406       .  A
C1291      C1298   1.507       .  S
C1292      C1293   1.407       .  A
C1292      H1297   1.084       .  S
C1293      C1294   1.419       .  A
C1294      C1295   1.507       .  S
C1295      H1299   1.111       .  S
C1295      H1300   1.109       .  S
C1295      H1301   1.110       .  S
C1298      H1302   1.110       .  S
C1298      H1303   1.109       .  S
C1298      H1304   1.111       .  S
C1305      C1306   1.404       .  A
C1305      C1310   1.401       .  A
C1305      H1312   1.084       .  S
C1306      C1307   1.412       .  A
C1307      C1308   1.397       .  A
C1307      C1314   1.509       .  S
C1308      C1309   1.408       .  A
C1308      H1313   1.083       .  S
C1309      C1310   1.420       .  A
C1310      C1311   1.507       .  S
C1311      H1315   1.111       .  S
C1311      H1316   1.110   1_545  S
C1311      H1317   1.109   1_545  S
C1314      H1318   1.111       .  S
C1314      H1319   1.109       .  S
C1314      H1320   1.111       .  S
C1321      C1322   1.405       .  A
C1321      C1326   1.401       .  A
C1321      H1328   1.082       .  S
C1322      C1323   1.413       .  A
C1323      C1324   1.403       .  A
C1323      C1330   1.508       .  S
C1324      C1325   1.410       .  A
C1324      H1329   1.084       .  S
C1325      C1326   1.413       .  A
C1326      C1327   1.504       .  S
C1327      H1331   1.111       .  S
C1327      H1332   1.109       .  S
C1327      H1333   1.108       .  S
C1330      H1334   1.109       .  S
C1330      H1335   1.110       .  S
C1330      H1336   1.111       .  S
C1337      C1338   1.404       .  A
C1337      C1342   1.402       .  A
C1337      H1344   1.084       .  S
C1338      C1339   1.421       .  A
C1339      C1340   1.401       .  A
C1339      C1346   1.511       .  S
C1340      C1341   1.402       .  A
C1340      H1345   1.085       .  S
C1341      C1342   1.417       .  A
C1342      C1343   1.509       .  S
C1343      H1347   1.111       .  S
C1343      H1348   1.110       .  S
C1343      H1349   1.109       .  S
C1346      H1350   1.110       .  S
C1346      H1351   1.111       .  S
C1346      H1352   1.111       .  S
C1353      C1354   1.409       .  A
C1353      C1358   1.401       .  A
C1353      H1360   1.083       .  S
C1354      C1355   1.413       .  A
C1355      C1356   1.403       .  A
C1355      C1362   1.508       .  S
C1356      C1357   1.411       .  A
C1356      H1361   1.084       .  S
C1357      C1358   1.414       .  A
C1358      C1359   1.506       .  S
C1359      H1363   1.111       .  S
C1359      H1364   1.109       .  S
C1359      H1365   1.109       .  S
C1362      H1366   1.109       .  S
C1362      H1367   1.110       .  S
C1362      H1368   1.111       .  S
