geometry optimzed in LAMMPS
_audit_creation_date              2020-12-01 
_audit_creation_method            'lammps2cif' 
_symmetry_space_group_name_H-M    'P1' 
_symmetry_Int_Tables_number       1 
_symmetry_cell_setting            triclinic 
loop_ 
_symmetry_equiv_pos_as_xyz 
  x,y,z 
_cell_length_a                    46.40368593 
_cell_length_b                    46.29903449274381 
_cell_length_c                    30.705417710908918 
_cell_angle_alpha                 90.79565542838932 
_cell_angle_beta                  89.44934955146117 
_cell_angle_gamma                 120.5114449314253 
loop_ 
_atom_site_label 
_atom_site_type_symbol 
_atom_site_fract_x 
_atom_site_fract_y 
_atom_site_fract_z 
_atom_site_charge 
O1          O  0.54048569  0.07964662  0.06236385    -0.82300
C2          C  0.65070209  0.16228595  0.96297128     0.97000
O3          O  0.62753995  0.16237153  0.98446250    -0.71400
O4          O  0.57325133  0.14617002  0.02793213    -0.75000
Al5        Al  0.60903285  0.13664560  0.03389181     1.49000
C6          C  0.54966942  0.13522489  0.00061208     0.92300
O7          O  0.54589131  0.06304044  0.93879566    -0.81200
O8          O  0.58500524  0.03904514  0.97065583    -0.74800
Al9        Al  0.54745962  0.07374121  0.00115950     1.90100
O10         O  0.59880931  0.09195087  0.91903007    -0.73900
O11         O  0.64070794  0.08749257  0.02237016    -0.73700
O12         O  0.65266993  0.13585165  0.96062612    -0.79400
O13         O  0.64925237  0.13594788  0.04691798    -0.77600
O14         O  0.59117415  0.09987914  0.00208421    -1.13700
O15         O  0.59153926  0.11335923  0.08564562    -0.72900
C16         C  0.56148398  0.09188238  0.09327130     0.97800
C17         C  0.56830724  0.07588571  0.90932203     0.94200
Al18       Al  0.61733400  0.08912928  0.97110093     1.55600
O19         O  0.53958869  0.10737721  0.98236498    -0.77500
C20         C  0.65827068  0.11431163  0.04465808     0.98400
C21         C  0.55774810  0.02262482  0.99205763     0.93200
O22         O  0.55175721  0.03825139  0.02060268    -0.82900
O23         O  0.43810952  0.07274519  0.52973607    -0.82300
C24         C  0.57932753  0.14039461  0.49576313     0.97000
O25         O  0.56462028  0.14865535  0.52377238    -0.71400
O26         O  0.51834826  0.15465261  0.48384892    -0.75000
Al27       Al  0.51753384  0.13155305  0.53381603     1.49000
C28         C  0.49235102  0.14820484  0.46327294     0.92300
O29         O  0.48314228  0.07978629  0.42224574    -0.81200
O30         O  0.49148200  0.03409444  0.52217229    -0.74800
Al31       Al  0.46289591  0.07608450  0.47646929     1.90100
O32         O  0.51646677  0.06102965  0.43961782    -0.73900
O33         O  0.54150243  0.08368035  0.56065323    -0.73700
O34         O  0.56439297  0.11171162  0.47900461    -0.79400
O35         O  0.51752897  0.11116111  0.58596190    -0.77600
O36         O  0.50222957  0.09375621  0.50382362    -1.13700
O37         O  0.47451306  0.12406665  0.55103489    -0.72900
C38         C  0.44494395  0.09925602  0.55135232     0.97800
C39         C  0.50330438  0.07038903  0.41115899     0.94200
Al40       Al  0.52643960  0.07404129  0.50070303     1.55600
O41         O  0.46669798  0.11899088  0.46362529    -0.77500
C42         C  0.53149298  0.09435415  0.59218658     0.98400
C43         C  0.46698212  0.01573045  0.49858616     0.93200
O44         O  0.45200551  0.02860357  0.47939314    -0.82900
O45         O  0.54607451  0.42063761  0.05557737    -0.82300
C46         C  0.48802208  0.30289266  0.95761566     0.97000
O47         O  0.51552706  0.32315429  0.97509109    -0.71400
O48         O  0.56535693  0.37552491  0.01216693    -0.75000
Al49       Al  0.51839505  0.34713690  0.02617256     1.49000
C50         C  0.57981289  0.39836802  0.98427876     0.92300
O51         O  0.51780487  0.41730539  0.93630201    -0.81200
O52         O  0.45535246  0.38753819  0.97783532    -0.74800
Al53       Al  0.52928996  0.41466459  0.99640645     1.90100
O54         O  0.48282568  0.36461349  0.91813672    -0.73900
O55         O  0.43988881  0.32987656  0.02759505    -0.73700
O56         O  0.46366638  0.30805549  0.95967892    -0.79400
O57         O  0.47474639  0.31311624  0.04627673    -0.77600
O58         O  0.50374130  0.37049474  0.99894080    -1.13700
O59         O  0.52268647  0.36907965  0.07958617    -0.72900
C60         C  0.53791264  0.40018670  0.08675115     0.97800
C61         C  0.50253878  0.39463607  0.90751773     0.94200
Al62       Al  0.46350385  0.34934793  0.97332432     1.55600
O63         O  0.56568091  0.41361873  0.97135387    -0.77500
C64         C  0.44600041  0.31006272  0.04888050     0.98400
C65         C  0.47153549  0.41551621  0.99792778     0.93200
O66         O  0.49579829  0.42076658  0.02097113    -0.82900
O67         O  0.63548554  0.52216001  0.52848726    -0.82300
C68         C  0.55912877  0.38108579  0.49060853     0.97000
O69         O  0.58087361  0.39515482  0.51986512    -0.71400
O70         O  0.63557372  0.44121689  0.48295041    -0.75000
Al71       Al  0.61130734  0.44162118  0.53196460     1.49000
C72         C  0.65751989  0.46787329  0.46536067     0.92300
O73         O  0.60057501  0.47731893  0.41933902    -0.81200
O74         O  0.54327457  0.47081161  0.51673361    -0.74800
Al75       Al  0.61547902  0.49762722  0.47445954     1.90100
O76         O  0.54717903  0.44551685  0.43458078    -0.73900
O77         O  0.53843197  0.41957793  0.55593820    -0.73700
O78         O  0.54600666  0.39630762  0.47425913    -0.79400
O79         O  0.58883791  0.44046677  0.58351036    -0.77600
O80         O  0.59116954  0.45813837  0.50118260    -1.13700
O81         O  0.64663147  0.48410076  0.55109054    -0.72900
C82         C  0.65354208  0.51428904  0.55088793     0.97800
C83         C  0.57078802  0.45903303  0.40684588     0.94200
Al84       Al  0.54710548  0.43492968  0.49593610     1.55600
O85         O  0.65451070  0.49353908  0.46469820    -0.77500
C86         C  0.55772534  0.42717121  0.58850151     0.98400
C87         C  0.55132309  0.49535561  0.49269636     0.93200
O88         O  0.58013397  0.50962836  0.47507665    -0.82900
O89         O  0.88749440  0.32800781  0.52906047    -0.82300
C90         C  0.82971961  0.41105330  0.51515958     0.97000
O91         O  0.81994527  0.38657000  0.54044262    -0.71400
O92         O  0.80964909  0.33598162  0.49099541    -0.75000
Al93       Al  0.83351190  0.35365837  0.54292984     1.49000
C94         C  0.81355852  0.31563961  0.46770692     0.92300
O95         O  0.88429970  0.37585344  0.43055679    -0.81200
O96         O  0.93287478  0.42040546  0.53608595    -0.74800
Al97       Al  0.88612034  0.35428879  0.48078689     1.90100
O98         O  0.90743643  0.42727234  0.45665873    -0.73900
O99         O  0.88617825  0.42253638  0.58009637    -0.73700
O100        O  0.85898484  0.42571082  0.50048633    -0.79400
O101        O  0.85439093  0.36936788  0.59662557    -0.77600
O102        O  0.87155023  0.37634210  0.51410603    -1.13700
O103        O  0.83748775  0.31493308  0.55226406    -0.72900
C104        C  0.86038959  0.30775396  0.54887713     0.97800
C105        C  0.89865088  0.40705265  0.42445314     0.94200
Al106      Al  0.89466790  0.42070910  0.51820042     1.55600
O107        O  0.84179877  0.31755613  0.46533409    -0.77500
C108        C  0.87385618  0.39928676  0.60805888     0.98400
C109        C  0.94923992  0.41565671  0.50722839     0.93200
O110        O  0.93448698  0.38840449  0.48532508    -0.82900
O111        O  0.89387713  0.44328341  0.07745147    -0.82300
C112        C  0.81768291  0.48225677  0.97745396     0.97000
O113        O  0.81787117  0.47947175  0.01812215    -0.71400
O114        O  0.80425840  0.42034530  0.03798385    -0.75000
Al115      Al  0.83807045  0.46378614  0.05632369     1.49000
C116        C  0.80705594  0.39483467  0.03399864     0.92300
O117        O  0.86250373  0.41751564  0.96088775    -0.81200
O118        O  0.93167770  0.51006480  0.99279362    -0.74800
Al119      Al  0.87740431  0.43198385  0.01930920     1.90100
O120        O  0.88657394  0.46785909  0.93233415    -0.73900
O121        O  0.88530916  0.53144756  0.01332366    -0.73700
O122        O  0.84167750  0.48465106  0.95468226    -0.79400
O123        O  0.86808327  0.50806018  0.07712050    -0.77600
O124        O  0.86730805  0.46434481  0.01777583    -1.13700
O125        O  0.85194744  0.44740955  0.10380815    -0.72900
C126        C  0.87730806  0.44459008  0.10945431     0.97800
C127        C  0.87342219  0.43650858  0.92822268     0.94200
Al128      Al  0.88520219  0.49612275  0.97710765     1.55600
O129        O  0.83496698  0.39703377  0.03851076    -0.77500
C130        C  0.87637127  0.53264213  0.05232213     0.98400
C131        C  0.94181565  0.48901094  0.99400374     0.93200
O132        O  0.92143151  0.45853254  0.00035863    -0.82900
O133        O  0.54841310  0.75441374  0.39817094    -0.82300
C134        C  0.47938935  0.79875674  0.30021631     0.97000
O135        O  0.47517810  0.77234876  0.31746844    -0.71400
O136        O  0.48399021  0.72751387  0.35674980    -0.75000
Al137      Al  0.49760453  0.77382424  0.36864162     1.49000
C138        C  0.49517951  0.71429893  0.33044203     0.92300
O139        O  0.57323786  0.78264668  0.27905576    -0.81200
O140        O  0.60003117  0.84552483  0.31858994    -0.74800
Al141      Al  0.55898284  0.77087227  0.33907431     1.90100
O142        O  0.55056160  0.81244917  0.25974531    -0.73900
O143        O  0.55304457  0.85463326  0.36846591    -0.73700
O144        O  0.50797592  0.82523521  0.30122452    -0.79400
O145        O  0.50203953  0.81584993  0.38711104    -0.77600
O146        O  0.53617720  0.79198629  0.34082060    -1.13700
O147        O  0.51698734  0.77398971  0.42194526    -0.72900
C148        C  0.53515554  0.76165705  0.42950276     0.97800
C149        C  0.56434307  0.79573040  0.24992833     0.94200
Al150      Al  0.55189247  0.83153920  0.31456889     1.55600
O151        O  0.52401091  0.73133775  0.31487018    -0.77500
C152        C  0.52594607  0.84596434  0.38934149     0.98400
C153        C  0.61408314  0.83194390  0.33829110     0.93200
O154        O  0.59662587  0.80813464  0.36321803    -0.82900
O155        O  0.56101473  0.66412044  0.86498493    -0.82300
C156        C  0.49625659  0.74042803  0.84248144     0.97000
O157        O  0.48980706  0.71905301  0.87176513    -0.71400
O158        O  0.47804687  0.66388533  0.83134545    -0.75000
Al159      Al  0.50571728  0.68796815  0.87834618     1.49000
C160        C  0.48174439  0.64299564  0.80886149     0.92300
O161        O  0.54753468  0.69906011  0.76051467    -0.81200
O162        O  0.60246482  0.75673606  0.85506325    -0.74800
Al163      Al  0.55457628  0.68415092  0.81336192     1.90100
O164        O  0.57004347  0.75247151  0.77664508    -0.73900
O165        O  0.55725182  0.76104492  0.89976659    -0.73700
O166        O  0.52341070  0.75289448  0.82213242    -0.79400
O167        O  0.53101385  0.71044658  0.92777478    -0.77600
O168        O  0.54084195  0.70824277  0.84366298    -1.13700
O169        O  0.51248693  0.65183082  0.89302018    -0.72900
C170        C  0.53600554  0.64561518  0.88928741     0.97800
C171        C  0.55843440  0.72879024  0.74874698     0.94200
Al172      Al  0.56180668  0.75239873  0.83887094     1.55600
O173        O  0.51014148  0.64536588  0.80533655    -0.77500
C174        C  0.54877567  0.74177002  0.93226786     0.98400
C175        C  0.61794538  0.74887509  0.82838507     0.93200
O176        O  0.60250742  0.71982839  0.81085534    -0.82900
O177        O  0.10715447  0.41022813  0.85897618    -0.82300
C178        C  0.24876788  0.47144691  0.84024947     0.97000
O179        O  0.23376558  0.47850577  0.86921758    -0.71400
O180        O  0.19369600  0.49117117  0.82687581    -0.75000
Al181      Al  0.18693201  0.46416274  0.87447179     1.49000
C182        C  0.17016755  0.48887244  0.80437742     0.92300
O183        O  0.15883772  0.42098431  0.75694388    -0.81200
O184        O  0.15494327  0.36654602  0.85530987    -0.74800
Al185      Al  0.13510562  0.41530921  0.80869772     1.90100
O186        O  0.18625946  0.39608286  0.77612406    -0.73900
O187        O  0.20535869  0.41220535  0.89992820    -0.73700
O188        O  0.23361471  0.44353107  0.82115503    -0.79400
O189        O  0.18132558  0.43969999  0.92466900    -0.77600
O190        O  0.17167430  0.42836622  0.84069709    -1.13700
O191        O  0.14397506  0.45899593  0.88722029    -0.72900
C192        C  0.11384284  0.43572978  0.88271802     0.97800
C193        C  0.17620276  0.40805892  0.74688131     0.94200
Al194      Al  0.19333868  0.40610601  0.83845815     1.55600
O195        O  0.14322622  0.46079596  0.79969400    -0.77500
C196        C  0.19465208  0.42237692  0.93130777     0.98400
C197        C  0.13308423  0.35089677  0.82690264     0.93200
O198        O  0.12092422  0.36649670  0.80735672    -0.82900
O199        O  0.21420193  0.40589722  0.39988817    -0.82300
C200        C  0.33026753  0.48286821  0.29817323     0.97000
O201        O  0.32451868  0.48844994  0.33647384    -0.71400
O202        O  0.27405178  0.49576194  0.35164536    -0.75000
Al203      Al  0.28858321  0.46755358  0.37565520     1.49000
C204        C  0.24430966  0.48909273  0.34904042     0.92300
O205        O  0.21983896  0.42932256  0.28020919    -0.81200
O206        O  0.24844476  0.36849578  0.32599110    -0.74800
Al207      Al  0.21876873  0.41871731  0.34044602     1.90100
O208        O  0.25071537  0.40787958  0.25895379    -0.73900
O209        O  0.31419744  0.41909772  0.34618542    -0.73700
O210        O  0.31142636  0.45528131  0.27926699    -0.79400
O211        O  0.30756461  0.44488301  0.40215635    -0.77600
O212        O  0.26258123  0.43330752  0.34078339    -1.13700
O213        O  0.25751413  0.45255967  0.42385046    -0.72900
C214        C  0.23167086  0.42434423  0.43116455     0.97800
C215        C  0.23090187  0.41825714  0.25034158     0.94200
Al216      Al  0.27954810  0.41405411  0.30604324     1.55600
O217        O  0.22078688  0.45971185  0.35500747    -0.77500
C218        C  0.32390854  0.43355952  0.38298401     0.98400
C219        C  0.21694447  0.35618681  0.32357305     0.93200
O220        O  0.20473290  0.37476902  0.32566354    -0.82900
O221        O  0.20460000  0.76577064  0.40892993    -0.82300
C222        C  0.17887242  0.65467916  0.31202262     0.97000
O223        O  0.19986094  0.67557341  0.33847918    -0.71400
O224        O  0.23721749  0.73107387  0.38050037    -0.75000
Al225      Al  0.19078108  0.69575687  0.38511606     1.49000
C226        C  0.25094936  0.75209313  0.35019714     0.92300
O227        O  0.18714593  0.75908054  0.28597840    -0.81200
O228        O  0.12132349  0.71936265  0.31564502    -0.74800
Al229      Al  0.19362184  0.75779546  0.34789560     1.90100
O230        O  0.16216227  0.70612724  0.26635437    -0.73900
O231        O  0.11022030  0.66253366  0.36660966    -0.73700
O232        O  0.15057670  0.65251626  0.30723830    -0.79400
O233        O  0.14901170  0.65574596  0.39669345    -0.77600
O234        O  0.17415207  0.71353458  0.35016770    -1.13700
O235        O  0.18272150  0.71478127  0.43458802    -0.72900
C236        C  0.19306462  0.74550059  0.44034185     0.97800
C237        C  0.17874905  0.73660342  0.25682788     0.94200
Al238      Al  0.13851208  0.68721009  0.31723832     1.55600
O239        O  0.23498446  0.76348031  0.33163227    -0.77500
C240        C  0.11840246  0.64515347  0.38981698     0.98400
C241        C  0.13209866  0.74769991  0.33490899     0.93200
O242        O  0.15390479  0.75608615  0.36364712    -0.82900
O243        O  0.30617506  0.86338013  0.86301857    -0.82300
C244        C  0.22180086  0.72100627  0.85007058     0.97000
O245        O  0.24509248  0.73642733  0.87725113    -0.71400
O246        O  0.29759381  0.77493448  0.83131834    -0.75000
Al247      Al  0.27849507  0.78320670  0.88009377     1.49000
C248        C  0.31991318  0.79856971  0.80946727     0.92300
O249        O  0.26239199  0.80788820  0.76352306    -0.81200
O250        O  0.21517789  0.81723923  0.86349697    -0.74800
Al251      Al  0.28188596  0.83371020  0.81372652     1.90100
O252        O  0.20997531  0.78170626  0.78612597    -0.73900
O253        O  0.20907099  0.76816177  0.91029114    -0.73700
O254        O  0.20822175  0.73553628  0.83313675    -0.79400
O255        O  0.26115020  0.79051561  0.93108691    -0.77600
O256        O  0.25795244  0.79802660  0.84750415    -1.13700
O257        O  0.31700046  0.82625638  0.89042938    -0.72900
C258        C  0.32439560  0.85642990  0.88673069     0.97800
C259        C  0.23148976  0.79038170  0.75574116     0.94200
Al260      Al  0.21376323  0.77726509  0.84839657     1.55600
O261        O  0.31911404  0.82540216  0.80432501    -0.77500
C262        C  0.23084014  0.77923934  0.94020861     0.98400
C263        C  0.21984041  0.83640148  0.83250747     0.93200
O264        O  0.24749836  0.84800931  0.81186126    -0.82900
O265        O  0.22159839  0.09684371  0.71937437    -0.82300
C266        C  0.15323130  0.14718973  0.62491874     0.97000
O267        O  0.14663040  0.13512934  0.66259958    -0.71400
O268        O  0.13510190  0.07513849  0.67139036    -0.75000
Al269      Al  0.16473396  0.11660628  0.69973629     1.49000
C270        C  0.14023754  0.05153445  0.66293575     0.92300
O271        O  0.20252285  0.09026869  0.59794533    -0.81200
O272        O  0.26530598  0.17567664  0.65840081    -0.74800
Al273      Al  0.21148764  0.09474916  0.65889925     1.90100
O274        O  0.22873812  0.14419466  0.58424577    -0.73900
O275        O  0.21525426  0.19185085  0.67869480    -0.73700
O276        O  0.18115619  0.15639668  0.60703381    -0.79400
O277        O  0.18842935  0.15740017  0.73178630    -0.77600
O278        O  0.19924879  0.12539652  0.66500667    -1.13700
O279        O  0.17660295  0.09599037  0.74463006    -0.72900
C280        C  0.20234131  0.09375134  0.75065445     0.97800
C281        C  0.21546962  0.11410859  0.57110955     0.94200
Al282      Al  0.22107621  0.16386430  0.63523040     1.55600
O283        O  0.16907118  0.05589542  0.66606448    -0.77500
C284        C  0.20004227  0.18595987  0.71499921     0.98400
C285        C  0.27659777  0.15570156  0.65427818     0.93200
O286        O  0.25685813  0.12485339  0.64941786    -0.82900
O287        O  0.21578383  0.99253327  0.18698183    -0.82300
C288        C  0.15031392  0.06635542  0.14823052     0.97000
O289        O  0.14123697  0.04352912  0.17611955    -0.71400
O290        O  0.13614849  0.99123667  0.13528775    -0.75000
Al291      Al  0.15740037  0.01315984  0.18702554     1.49000
C292        C  0.14169644  0.96975848  0.11781711     0.92300
O293        O  0.21186351  0.03084405  0.07850348    -0.81200
O294        O  0.25490476  0.08427669  0.18292886    -0.74800
Al295      Al  0.21398392  0.01408195  0.13318103     1.90100
O296        O  0.23144634  0.08347167  0.09812461    -0.73900
O297        O  0.20514234  0.08532093  0.21856009    -0.73700
O298        O  0.17977994  0.08075239  0.13420675    -0.79400
O299        O  0.17598132  0.03315939  0.24047900    -0.77600
O300        O  0.19601512  0.03589714  0.15975002    -1.13700
O301        O  0.16396795  0.97713239  0.20449514    -0.72900
C302        C  0.18847873  0.97228165  0.20660730     0.97800
C303        C  0.22423525  0.06126101  0.06860896     0.94200
Al304      Al  0.21634457  0.08015938  0.15863392     1.55600
O305        O  0.17097060  0.97389563  0.11873100    -0.77500
C306        C  0.19395027  0.06392637  0.24893953     0.98400
C307        C  0.27391098  0.07971991  0.15854550     0.93200
O308        O  0.26171703  0.05170963  0.13819718    -0.82900
O309        O  0.86903106  0.73145679  0.74390466    -0.82300
C310        C  0.97497903  0.81526663  0.63934540     0.97000
O311        O  0.95468106  0.81627302  0.66592789    -0.71400
O312        O  0.90131567  0.79860021  0.71304123    -0.75000
Al313      Al  0.93709015  0.78846750  0.71425333     1.49000
C314        C  0.87694015  0.78858985  0.68711084     0.92300
O315        O  0.86875039  0.71598316  0.62048232    -0.81200
O316        O  0.91082493  0.69270687  0.64578538    -0.74800
Al317      Al  0.87351433  0.72638812  0.68236521     1.90100
O318        O  0.92026061  0.74480848  0.59601429    -0.73900
O319        O  0.96918381  0.74054296  0.69260405    -0.73700
O320        O  0.97629614  0.78869888  0.63400798    -0.79400
O321        O  0.97771172  0.78752656  0.72252886    -0.77600
O322        O  0.91760687  0.75237947  0.68070793    -1.13700
O323        O  0.92101304  0.76325735  0.76528968    -0.72900
C324        C  0.89088455  0.74227810  0.77364077     0.97800
C325        C  0.88921059  0.72816880  0.58906319     0.94200
Al326      Al  0.94221440  0.74224878  0.64548160     1.55600
O327        O  0.86569316  0.76094750  0.66762360    -0.77500
C328        C  0.98747546  0.76677520  0.71548918     0.98400
C329        C  0.88394546  0.67536760  0.66749298     0.93200
O330        O  0.87736482  0.68959032  0.69754476    -0.82900
O331        O  0.77315811  0.74561979  0.19714397    -0.82300
C332        C  0.91394742  0.79534756  0.18577793     0.97000
O333        O  0.89990212  0.80514248  0.21271916    -0.71400
O334        O  0.86369913  0.82295808  0.17071131    -0.75000
Al335      Al  0.85394838  0.79416316  0.21747939     1.49000
C336        C  0.84180388  0.82288334  0.14702009     0.92300
O337        O  0.82762574  0.75445736  0.09848872    -0.81200
O338        O  0.81262888  0.69416981  0.19492272    -0.74800
Al339      Al  0.80213955  0.74946102  0.14857162     1.90100
O340        O  0.85001001  0.72500196  0.11944667    -0.73900
O341        O  0.86279580  0.73496718  0.24371957    -0.73700
O342        O  0.89734877  0.76689680  0.16842599    -0.79400
O343        O  0.84613908  0.76900681  0.26789069    -0.77600
O344        O  0.83672040  0.75847377  0.18297749    -1.13700
O345        O  0.81202660  0.79192301  0.22891019    -0.72900
C346        C  0.78134660  0.77106817  0.22182615     0.97800
C347        C  0.84375150  0.73989481  0.08983481     0.94200
Al348      Al  0.85422709  0.73213437  0.18197854     1.55600
O349        O  0.81414438  0.79596958  0.14078154    -0.77500
C350        C  0.85531739  0.74819919  0.27485051     0.98400
C351        C  0.79223721  0.68160823  0.16418144     0.93200
O352        O  0.78371833  0.70026319  0.14485514    -0.82900
O353        O  0.87785560  0.08975630  0.72654187    -0.82300
C354        C  0.83697421  0.97325146  0.62755264     0.97000
O355        O  0.86344715  0.99630157  0.64429990    -0.71400
O356        O  0.90762632  0.05033185  0.68460384    -0.75000
Al357      Al  0.86117759  0.01870031  0.69473990     1.49000
C358        C  0.92204050  0.07505912  0.65957238     0.92300
O359        O  0.85868850  0.08637292  0.60413790    -0.81200
O360        O  0.79346772  0.05019339  0.63526570    -0.74800
Al361      Al  0.86601097  0.08416024  0.66552098     1.90100
O362        O  0.82947268  0.03328079  0.58269227    -0.73900
O363        O  0.78061866  0.99380267  0.68735696    -0.73700
O364        O  0.81156364  0.97656484  0.62499525    -0.79400
O365        O  0.81825701  0.98225622  0.71115579    -0.77600
O366        O  0.84469752  0.03965617  0.66556903    -1.13700
O367        O  0.86043452  0.03846695  0.74761101    -0.72900
C368        C  0.87059161  0.06867912  0.75663377     0.97800
C369        C  0.84713739  0.06414263  0.57422279     0.94200
Al370      Al  0.80669913  0.01556498  0.63537555     1.55600
O371        O  0.90674209  0.08921029  0.64702277    -0.77500
C372        C  0.78807513  0.97530139  0.70956208     0.98400
C373        C  0.80552100  0.07814066  0.65532310     0.93200
O374        O  0.82754751  0.08510706  0.68339783    -0.82900
O375        O  0.97268626  0.20069980  0.18883020    -0.82300
C376        C  0.89767741  0.05808631  0.16702865     0.97000
O377        O  0.92029884  0.07429645  0.19471734    -0.71400
O378        O  0.97282042  0.11771905  0.15063238    -0.75000
Al379      Al  0.95089232  0.12164684  0.20001010     1.49000
C380        C  0.99260216  0.14243230  0.12776993     0.92300
O381        O  0.93355283  0.14905927  0.08548560    -0.81200
O382        O  0.87979211  0.14681777  0.18456908    -0.74800
Al383      Al  0.95071150  0.17269705  0.13758063     1.90100
O384        O  0.88114605  0.11735252  0.10508923    -0.73900
O385        O  0.87903954  0.09856711  0.22743043    -0.73700
O386        O  0.88374707  0.07153898  0.14815174    -0.79400
O387        O  0.93092049  0.12492619  0.25148946    -0.77600
O388        O  0.92853071  0.13505958  0.16823455    -1.13700
O389        O  0.98674403  0.16518923  0.21313597    -0.72900
C390        C  0.99184009  0.19467655  0.21176810     0.97800
C391        C  0.90342024  0.12913128  0.07565823     0.94200
Al392      Al  0.88428677  0.11055219  0.16657715     1.55600
O393        O  0.98971866  0.16824047  0.12582433    -0.77500
C394        C  0.89993428  0.11024278  0.25839143     0.98400
C395        C  0.88610693  0.16941619  0.15778622     0.93200
O396        O  0.91434573  0.18349481  0.13841969    -0.82900
C397        C  0.85896405  0.08689363  0.96901468    -0.11900
C398        C  0.88578470  0.10264699  0.93972544     0.14600
C399        C  0.91738762  0.12740247  0.95481412     0.01500
C400        C  0.92162625  0.13608597  0.99875215    -0.16300
C401        C  0.89522337  0.12002742  0.02896341    -0.11100
C402        C  0.86321448  0.09516754  0.01361308     0.08300
C403        C  0.88035611  0.09315017  0.89334829     0.09300
S404        S  0.95350184  0.14866128  0.91970516    -0.25400
H405        H  0.94632735  0.15523433  0.00936628     0.19600
S406        S  0.82761988  0.07344667  0.04962214    -0.31100
H407        H  0.83474868  0.06798289  0.95670196     0.09900
C408        C  0.87948515  0.06398332  0.87812714     0.03100
C409        C  0.87655688  0.05702214  0.83343001    -0.13400
C410        C  0.87425388  0.07852065  0.80336164    -0.09100
C411        C  0.87475790  0.10764512  0.81922540     0.06500
C412        C  0.87817979  0.11477167  0.86390263    -0.14100
S413        S  0.88346263  0.03636702  0.91549407    -0.31100
H414        H  0.87640249  0.03475115  0.82188638     0.10800
S415        S  0.86976883  0.13596883  0.78494239    -0.28200
H416        H  0.87892967  0.13725824  0.87595990     0.08000
H417        H  0.80466862  0.05162713  0.01833608     0.26400
H418        H  0.88195167  0.01317508  0.88417317     0.21200
H419        H  0.84148618  0.10988332  0.76417780     0.26500
H420        H  0.94523558  0.12117369  0.89192141     0.15400
C421        C  0.83589986  0.07006760  0.45389483    -0.11900
C422        C  0.86923956  0.08947715  0.44021667     0.14600
C423        C  0.89515343  0.10281368  0.47146174     0.01500
C424        C  0.88710045  0.09563424  0.51547179    -0.16300
C425        C  0.85392249  0.07435575  0.52860433    -0.11100
C426        C  0.82796083  0.06186311  0.49767640     0.08300
C427        C  0.87583125  0.09461834  0.39303806     0.09300
S428        S  0.93887478  0.12774311  0.45734492    -0.25400
H429        H  0.90699864  0.10525074  0.53937782     0.19600
S430        S  0.78465542  0.03597792  0.51375358    -0.31100
H431        H  0.81616395  0.06068428  0.42984218     0.09900
C432        C  0.86710369  0.06720421  0.36454587     0.03100
C433        C  0.87302747  0.07288352  0.31988904    -0.13400
C434        C  0.88850281  0.10542632  0.30351556    -0.09100
C435        C  0.89738625  0.13288296  0.33192412     0.06500
C436        C  0.89055004  0.12714052  0.37638028    -0.14100
S437        S  0.85057141  0.02529094  0.38522011    -0.31100
H438        H  0.86725915  0.05217673  0.29784452     0.10800
S439        S  0.91808882  0.17571750  0.31354927    -0.28200
H440        H  0.89709528  0.14814956  0.39824359     0.08000
H441        H  0.77077803  0.03071758  0.47184156     0.26400
H442        H  0.84954871  0.00969286  0.34515372     0.21200
H443        H  0.90592598  0.16850549  0.27065249     0.26500
H444        H  0.93644168  0.11180310  0.41711514     0.15400
C445        C  0.88442836  0.91567852  0.12706306    -0.11900
C446        C  0.85731672  0.92065422  0.13237464     0.14600
C447        C  0.82453822  0.89282100  0.13415615     0.01500
C448        C  0.81985402  0.86049882  0.13371257    -0.16300
C449        C  0.84729008  0.85547549  0.13234334    -0.11100
C450        C  0.87996477  0.88356953  0.12710327     0.08300
C451        C  0.86494729  0.95505759  0.14161444     0.09300
S452        S  0.78813427  0.89690530  0.14133137    -0.25400
H453        H  0.79478857  0.83933544  0.13829835     0.19600
S454        S  0.91753905  0.88104109  0.12379580    -0.31100
H455        H  0.90958539  0.93720303  0.12544862     0.09900
C456        C  0.87081183  0.96767026  0.18465008     0.03100
C457        C  0.88178415  0.00157738  0.19207779    -0.13400
C458        C  0.88700460  0.02298298  0.15726531    -0.09100
C459        C  0.88130442  0.01026972  0.11409996     0.06500
C460        C  0.87016840  0.97636821  0.10678943    -0.14100
S461        S  0.86500999  0.94069958  0.22994582    -0.31100
H462        H  0.88609449  0.01146013  0.22506789     0.10800
S463        S  0.88950272  0.03624673  0.06696206    -0.28200
H464        H  0.86645937  0.96668894  0.07370333     0.08000
H465        H  0.90234454  0.84826674  0.10734840     0.26400
H466        H  0.87561910  0.96550373  0.26275100     0.21200
H467        H  0.91771770  0.06471480  0.08442474     0.26500
H468        H  0.80181493  0.92886837  0.12299272     0.15400
C469        C  0.85149700  0.85495735  0.69375518    -0.11900
C470        C  0.84066048  0.85387184  0.65091539     0.14600
C471        C  0.83875475  0.82919695  0.62178144     0.01500
C472        C  0.84967552  0.80761073  0.63517344    -0.16300
C473        C  0.86219298  0.80967248  0.67739717    -0.11100
C474        C  0.86179258  0.83286412  0.70750230     0.08300
C475        C  0.83596775  0.88152539  0.63631994     0.09300
S476        S  0.82399055  0.82491789  0.56662120    -0.25400
H477        H  0.84945558  0.78977503  0.61173873     0.19600
S478        S  0.87371266  0.83535866  0.76372853    -0.31100
H479        H  0.85263441  0.87369724  0.71637993     0.09900
C480        C  0.80703383  0.88283959  0.64677219     0.03100
C481        C  0.80624549  0.91212002  0.63801193    -0.13400
C482        C  0.83418704  0.94035182  0.62000836    -0.09100
C483        C  0.86204880  0.93783672  0.60655482     0.06500
C484        C  0.86260864  0.90850155  0.61481153    -0.14100
S485        S  0.77198933  0.84803526  0.67344182    -0.31100
H486        H  0.78503126  0.91407618  0.64892025     0.10800
S487        S  0.89841349  0.97188196  0.58104066    -0.28200
H488        H  0.88468272  0.90727081  0.60625968     0.08000
H489        H  0.86019145  0.80060300  0.76823959     0.26400
H490        H  0.75106341  0.86182778  0.67469339     0.21200
H491        H  0.88157413  0.98722848  0.56374885     0.26500
H492        H  0.80313288  0.83827289  0.57440349     0.15400
C493        C  0.85860605  0.75517486  0.96848261    -0.11900
C494        C  0.86069428  0.72726538  0.95516114     0.14600
C495        C  0.86079304  0.70549649  0.98679471     0.01500
C496        C  0.85793513  0.71177024  0.03087801    -0.16300
C497        C  0.85327735  0.73835419  0.04403296    -0.11100
C498        C  0.85486595  0.76097537  0.01217133     0.08300
C499        C  0.86506032  0.72358691  0.90812988     0.09300
S500        S  0.86287363  0.66859443  0.97305084    -0.25400
H501        H  0.85745591  0.69459674  0.05483326     0.19600
S502        S  0.85360700  0.79845762  0.02462156    -0.31100
H503        H  0.86005852  0.77279374  0.94440910     0.09900
C504        C  0.84126708  0.72108182  0.87772833     0.03100
C505        C  0.84953469  0.72532515  0.83341571    -0.13400
C506        C  0.88096126  0.73163092  0.81897689    -0.09100
C507        C  0.90319247  0.73035273  0.84906241     0.06500
C508        C  0.89534756  0.72716390  0.89338951    -0.14100
S509        S  0.80079484  0.71356587  0.89553184    -0.31100
H510        H  0.83213840  0.72541790  0.81025426     0.10800
S511        S  0.94183216  0.73263683  0.83309794    -0.28200
H512        H  0.91340695  0.72849874  0.91666454     0.08000
H513        H  0.87327962  0.80554873  0.06197489     0.26400
H514        H  0.78827312  0.71359395  0.85400605     0.21200
H515        H  0.92971151  0.71574398  0.79301638     0.26500
H516        H  0.84692048  0.66263261  0.93248232     0.15400
C517        C  0.84032531  0.71649075  0.48474862    -0.11900
C518        C  0.86343049  0.71809260  0.45367641     0.14600
C519        C  0.89315492  0.71991362  0.46748136     0.01500
C520        C  0.89997553  0.72183960  0.51182259    -0.16300
C521        C  0.87775123  0.72183767  0.54326243    -0.11100
C522        C  0.84693227  0.71787526  0.52941340     0.08300
C523        C  0.85935948  0.72442933  0.40793613     0.09300
S524        S  0.92475144  0.72282550  0.43010425    -0.25400
H525        H  0.92343366  0.72419137  0.52178127     0.19600
S526        S  0.81662870  0.71762868  0.56659769    -0.31100
H527        H  0.81768954  0.71561324  0.47408087     0.09900
C528        C  0.84333913  0.69846590  0.37684605     0.03100
C529        C  0.84310145  0.70665357  0.33298040    -0.13400
C530        C  0.85811011  0.74029170  0.32025506    -0.09100
C531        C  0.87390197  0.76608592  0.35185273     0.06500
C532        C  0.87412445  0.75786392  0.39521389    -0.14100
S533        S  0.82379140  0.65521997  0.39314783    -0.31100
H534        H  0.83073688  0.68696601  0.30873352     0.10800
S535        S  0.89557085  0.81003109  0.33871132    -0.28200
H536        H  0.88674571  0.77775730  0.41920695     0.08000
H537        H  0.81119358  0.68838506  0.58745831     0.26400
H538        H  0.81204892  0.64109275  0.35162010     0.21200
H539        H  0.90953756  0.80603158  0.29990220     0.26500
H540        H  0.90267279  0.70322453  0.39678958     0.15400
C541        C  0.07372862  0.07517864  0.12997816    -0.11900
C542        C  0.08732649  0.10373447  0.10373071     0.14600
C543        C  0.12086683  0.11852186  0.09000516     0.01500
C544        C  0.14043339  0.10552096  0.10461796    -0.16300
C545        C  0.12723053  0.07739176  0.13214124    -0.11100
C546        C  0.09286164  0.06141339  0.14343659     0.08300
C547        C  0.06680060  0.11938483  0.09634880     0.09300
S548        S  0.14018591  0.15412120  0.05427519    -0.25400
H549        H  0.16639913  0.11784838  0.09446954     0.19600
S550        S  0.07149420  0.02351555  0.17466927    -0.31100
H551        H  0.04791597  0.06371772  0.14065688     0.09900
C552        C  0.03539411  0.10155899  0.07577163     0.03100
C553        C  0.01240257  0.11245771  0.08145019    -0.13400
C554        C  0.02046286  0.14102516  0.10680779    -0.09100
C555        C  0.05342718  0.16118181  0.12239803     0.06500
C556        C  0.07615344  0.14997822  0.11738418    -0.14100
S557        S  0.02376052  0.06363432  0.04510511    -0.31100
H558        H  0.98709484  0.09711064  0.06944194     0.10800
S559        S  0.06624540  0.19837123  0.15498209    -0.28200
H560        H  0.10035989  0.16384447  0.13304930     0.08000
H561        H  0.08239036  0.00613083  0.14758099     0.26400
H562        H  0.99208828  0.05733136  0.03200437     0.21200
H563        H  0.05023551  0.21066611  0.12882270     0.26500
H564        H  0.11051937  0.14762476  0.03365858     0.15400
C565        C  0.00252089  0.87030023  0.17231194    -0.11900
C566        C  0.01320951  0.86047742  0.13502099     0.14600
C567        C  0.99247576  0.82840981  0.11688138     0.01500
C568        C  0.96114584  0.80729364  0.13564098    -0.16300
C569        C  0.94945179  0.81750161  0.17199011    -0.11100
C570        C  0.97099896  0.84938394  0.19103986     0.08300
C571        C  0.04630717  0.88471138  0.11660233     0.09300
S572        S  0.00406341  0.81323608  0.06930495    -0.25400
H573        H  0.94528564  0.78304937  0.12041269     0.19600
S574        S  0.95940709  0.86407571  0.23923942    -0.31100
H575        H  0.01906740  0.89477151  0.18649746     0.09900
C576        C  0.05158741  0.91431816  0.09698604     0.03100
C577        C  0.08433821  0.94050284  0.08980756    -0.13400
C578        C  0.11195859  0.93811228  0.10320671    -0.09100
C579        C  0.10644129  0.90661642  0.11688589     0.06500
C580        C  0.07363048  0.88037388  0.12403729    -0.14100
S581        S  0.01667891  0.91988376  0.08481932    -0.31100
H582        H  0.08844205  0.96436166  0.07846672     0.10800
S583        S  0.13989792  0.89955596  0.13105123    -0.28200
H584        H  0.06948499  0.85725144  0.13820952     0.08000
H585        H  0.98762375  0.89655683  0.24070988     0.26400
H586        H  0.03553100  0.95261778  0.06852165     0.21200
H587        H  0.16007389  0.91746078  0.09540816     0.26500
H588        H  0.02461763  0.84465282  0.05018116     0.15400
C589        C  0.06237401  0.96549289  0.65916716    -0.11900
C590        C  0.06864247  0.95192147  0.62152407     0.14600
C591        C  0.09651940  0.97258852  0.59518994     0.01500
C592        C  0.11892119  0.00540579  0.60901795    -0.16300
C593        C  0.11329332  0.01861735  0.64752763    -0.11100
C594        C  0.08408145  0.99873765  0.67201208     0.08300
C595        C  0.04669709  0.91560235  0.61310031     0.09300
S596        S  0.10519899  0.95841228  0.54438956    -0.25400
H597        H  0.14118528  0.02072625  0.58978696     0.19600
S598        S  0.07498446  0.01340625  0.72190113    -0.31100
H599        H  0.04084889  0.94972808  0.67936815     0.09900
C600        C  0.05725972  0.89260417  0.62233605     0.03100
C601        C  0.03340607  0.85831009  0.62472532    -0.13400
C602        C  0.99935462  0.84691811  0.61874970    -0.09100
C603        C  0.98948787  0.86953251  0.60469718     0.06500
C604        C  0.01320628  0.90366101  0.60237865    -0.14100
S605        S  0.10020924  0.90707515  0.63652266    -0.31100
H606        H  0.04080230  0.84094904  0.63599051     0.10800
S607        S  0.94650941  0.85658781  0.59288376    -0.28200
H608        H  0.00518004  0.92126792  0.59465882     0.08000
H609        H  0.07770930  0.04214795  0.70290607     0.26400
H610        H  0.09713465  0.87525778  0.63785920     0.21200
H611        H  0.93621156  0.82287222  0.58347035     0.26500
H612        H  0.07191562  0.93375665  0.53527109     0.15400
C613        C  0.19334683  0.05810283  0.86393824    -0.11900
C614        C  0.22274543  0.08311939  0.88396929     0.14600
C615        C  0.24664271  0.11009027  0.85868723     0.01500
C616        C  0.23969634  0.11253050  0.81497772    -0.16300
C617        C  0.20993530  0.08797233  0.79524496    -0.11100
C618        C  0.18684349  0.06008114  0.81989598     0.08300
C619        C  0.22699427  0.08073370  0.93148545     0.09300
S620        S  0.28604679  0.14247608  0.88051783    -0.25400
H621        H  0.25723914  0.13429707  0.79658257     0.19600
S622        S  0.14861989  0.02635396  0.79709285    -0.31100
H623        H  0.17513196  0.03705264  0.88294601     0.09900
C624        C  0.22210135  0.10079206  0.96227914     0.03100
C625        C  0.22333126  0.09543077  0.00707870    -0.13400
C626        C  0.22945261  0.07042643  0.02177154    -0.09100
C627        C  0.23680508  0.05215251  0.99060775     0.06500
C628        C  0.23475221  0.05697011  0.94608108    -0.14100
S629        S  0.21227772  0.13182570  0.94455899    -0.31100
H630        H  0.21780771  0.10957447  0.03066035     0.10800
S631        S  0.24960458  0.02274857  0.00531889    -0.28200
H632        H  0.23934483  0.04210983  0.92250529     0.08000
H633        H  0.16055439  0.02932611  0.75415768     0.26400
H634        H  0.21319538  0.14559617  0.98601085     0.21200
H635        H  0.26729982  0.04058248  0.04271335     0.26500
H636        H  0.28931423  0.12239381  0.91171795     0.15400
C637        C  0.20929710  0.06135683  0.36928769    -0.11900
C638        C  0.20606626  0.08798150  0.38546540     0.14600
C639        C  0.20208586  0.10888847  0.35594847     0.01500
C640        C  0.20005637  0.10185025  0.31110468    -0.16300
C641        C  0.20158406  0.07412515  0.29516331    -0.11100
C642        C  0.20762221  0.05451814  0.32466170     0.08300
C643        C  0.20837721  0.09398250  0.43315216     0.09300
S644        S  0.19850756  0.14426753  0.37353078    -0.25400
H645        H  0.19576192  0.11719161  0.28877655     0.19600
S646        S  0.21451431  0.02104799  0.30742769    -0.31100
H647        H  0.21352907  0.04598687  0.39167181     0.09900
C648        C  0.18270605  0.07206163  0.46158582     0.03100
C649        C  0.18611734  0.07867553  0.50656327    -0.13400
C650        C  0.21452039  0.10699006  0.52374129    -0.09100
C651        C  0.24042693  0.12868332  0.49506471     0.06500
C652        C  0.23706102  0.12180430  0.45018540    -0.14100
S653        S  0.14502592  0.03641472  0.44044946    -0.31100
H654        H  0.16611810  0.06229331  0.52835135     0.10800
S655        S  0.27845031  0.16454329  0.51505852    -0.28200
H656        H  0.25681066  0.13811746  0.42803289     0.08000
H657        H  0.23087810  0.03632171  0.26828633     0.26400
H658        H  0.12848794  0.02511592  0.48066336     0.21200
H659        H  0.29408754  0.17630809  0.47445232     0.26500
H660        H  0.18300516  0.13083407  0.41370739     0.15400
C661        C  0.00879095  0.08702528  0.63799456    -0.11900
C662        C  0.02293416  0.11553492  0.61168330     0.14600
C663        C  0.00347895  0.12944622  0.59943239     0.01500
C664        C  0.97108859  0.11593761  0.61606158    -0.16300
C665        C  0.95691373  0.08792666  0.64384914    -0.11100
C666        C  0.97596504  0.07273789  0.65384450     0.08300
C667        C  0.05909485  0.13183219  0.60216046     0.09300
S668        S  0.01870223  0.16463992  0.56324901    -0.25400
H669        H  0.95684704  0.12752702  0.60682222     0.19600
S670        S  0.95969891  0.03560710  0.68693269    -0.31100
H671        H  0.02406783  0.07657353  0.64720826     0.09900
C672        C  0.08224052  0.16031185  0.62622872     0.03100
C673        C  0.11597966  0.16945365  0.62591997    -0.13400
C674        C  0.12665939  0.14990112  0.60356006    -0.09100
C675        C  0.10426966  0.12393639  0.57550886     0.06500
C676        C  0.07058777  0.11503417  0.57520050    -0.14100
S677        S  0.06828721  0.18177135  0.66274644    -0.31100
H678        H  0.13320256  0.18895594  0.64801091     0.10800
S679        S  0.11611782  0.09792011  0.54520472    -0.28200
H680        H  0.05278013  0.09318603  0.55665231     0.08000
H681        H  0.98564000  0.02887912  0.67894525     0.26400
H682        H  0.10007339  0.20632391  0.67790476     0.21200
H683        H  0.14981090  0.12299532  0.53993439     0.26500
H684        H  0.04199089  0.15882271  0.54117083     0.15400
C685        C  0.15340419  0.83218752  0.75375537    -0.11900
C686        C  0.12402648  0.81318406  0.77847954     0.14600
C687        C  0.12748889  0.80759997  0.82259050     0.01500
C688        C  0.15951120  0.81936962  0.84031989    -0.16300
C689        C  0.18913479  0.83620070  0.81509371    -0.11100
C690        C  0.18563946  0.84386878  0.77148148     0.08300
C691        C  0.08989193  0.80122947  0.75924576     0.09300
S692        S  0.09082113  0.78480321  0.85650624    -0.25400
H693        H  0.16122224  0.81362825  0.87387149     0.19600
S694        S  0.22101936  0.86766216  0.73633358    -0.31100
H695        H  0.15121456  0.83780248  0.72024464     0.09900
C696        C  0.07725503  0.82305457  0.75594026     0.03100
C697        C  0.04409948  0.81071604  0.74217334    -0.13400
C698        C  0.02216387  0.77653133  0.73145723    -0.09100
C699        C  0.03507035  0.75462393  0.73450028     0.06500
C700        C  0.06854466  0.76714656  0.74804082    -0.14100
S701        S  0.10327180  0.86686332  0.77029007    -0.31100
H702        H  0.03537497  0.82828468  0.73942660     0.10800
S703        S  0.00998895  0.71039427  0.72316539    -0.28200
H704        H  0.07776966  0.74995968  0.75099579     0.08000
H705        H  0.24074940  0.89033268  0.76934777     0.26400
H706        H  0.07887467  0.87595518  0.76467530     0.21200
H707        H  0.98164480  0.70663203  0.74541560     0.26500
H708        H  0.10754108  0.78474720  0.89444475     0.15400
C709        C  0.14247337  0.83422099  0.32787187    -0.11900
C710        C  0.14601922  0.84000465  0.28273227     0.14600
C711        C  0.13734466  0.81204619  0.25486904     0.01500
C712        C  0.12883362  0.78054651  0.27243703    -0.16300
C713        C  0.12729253  0.77535846  0.31774140    -0.11100
C714        C  0.13241647  0.80244580  0.34532573     0.08300
C715        C  0.15871734  0.87518460  0.26594621     0.09300
S716        S  0.13679747  0.81498998  0.19649070    -0.25400
H717        H  0.12527992  0.76050904  0.25042793     0.19600
S718        S  0.12769680  0.79827850  0.40368347    -0.31100
H719        H  0.14802577  0.85484928  0.34995913     0.09900
C720        C  0.14115398  0.89227111  0.27385490     0.03100
C721        C  0.15308650  0.92452647  0.25666250    -0.13400
C722        C  0.18208547  0.94084484  0.23020020    -0.09100
C723        C  0.20018729  0.92398481  0.22331241     0.06500
C724        C  0.18866327  0.89191725  0.24152637    -0.14100
S725        S  0.10188904  0.87208830  0.30320804    -0.31100
H726        H  0.13863657  0.93659059  0.26263651     0.10800
S727        S  0.23706808  0.94103188  0.18977818    -0.28200
H728        H  0.20272405  0.87941544  0.23546251     0.08000
H729        H  0.10546148  0.76339011  0.40303034     0.26400
H730        H  0.09693652  0.89964219  0.30464561     0.21200
H731        H  0.22100539  0.94473394  0.15345989     0.26500
H732        H  0.12821255  0.84006248  0.19616609     0.15400
C733        C  0.23261132  0.77417025  0.63522525    -0.11900
C734        C  0.20611416  0.77783150  0.62081406     0.14600
C735        C  0.18551956  0.78175938  0.65149622     0.01500
C736        C  0.19293660  0.78349788  0.69598949    -0.16300
C737        C  0.22079248  0.78189949  0.71010132    -0.11100
C738        C  0.24009336  0.77601038  0.67929332     0.08300
C739        C  0.19954259  0.77471010  0.57352254     0.09300
S740        S  0.15115639  0.78661133  0.63416036    -0.25400
H741        H  0.17802336  0.78775824  0.71959883     0.19600
S742        S  0.27422334  0.76995374  0.69378853    -0.31100
H743        H  0.24751124  0.76960984  0.61179552     0.09900
C744        C  0.22435874  0.79614004  0.54368521     0.03100
C745        C  0.22070766  0.78733075  0.49940120    -0.13400
C746        C  0.19265165  0.75768380  0.48463435    -0.09100
C747        C  0.16622019  0.73838181  0.51385989     0.06500
C748        C  0.17023344  0.74669772  0.55808555    -0.14100
S749        S  0.26126894  0.83391980  0.56226293    -0.31100
H750        H  0.24057383  0.80246981  0.47669216     0.10800
S751        S  0.12705917  0.70258741  0.49682533    -0.28200
H752        H  0.15097203  0.73039758  0.58084273     0.08000
H753        H  0.26068063  0.75504735  0.73414974     0.26400
H754        H  0.27637034  0.84462128  0.52113656     0.21200
H755        H  0.12721086  0.71480311  0.45503716     0.26500
H756        H  0.13670490  0.78328086  0.67564167     0.15400
C757        C  0.18317089  0.76737258  0.04686202    -0.11900
C758        C  0.20750623  0.77094362  0.07661591     0.14600
C759        C  0.23956439  0.77939987  0.06183519     0.01500
C760        C  0.24617518  0.78236090  0.01744865    -0.16300
C761        C  0.22176690  0.77787244  0.98684807    -0.11100
C762        C  0.19014102  0.77142743  0.00214516     0.08300
C763        C  0.19823788  0.76222536  0.12232345     0.09300
S764        S  0.27269314  0.78514239  0.09783499    -0.25400
H765        H  0.27070350  0.78762535  0.00691856     0.19600
S766        S  0.15794055  0.76858554  0.96700000    -0.31100
H767        H  0.15856960  0.76110273  0.05855802     0.09900
C768        C  0.19847166  0.78540089  0.15256734     0.03100
C769        C  0.19243733  0.77672336  0.19659399    -0.13400
C770        C  0.18718660  0.74567647  0.21080103    -0.09100
C771        C  0.18884040  0.72332518  0.18021592     0.06500
C772        C  0.19326056  0.73144271  0.13631418    -0.14100
S773        S  0.20808114  0.82645616  0.13524874    -0.31100
H774        H  0.19175178  0.79412488  0.21989588     0.10800
S775        S  0.18818725  0.68536205  0.19486281    -0.28200
H776        H  0.19459566  0.71436255  0.11296710     0.08000
H777        H  0.18005613  0.79748046  0.94357510     0.26400
H778        H  0.21209619  0.84050252  0.17725588     0.21200
H779        H  0.20848146  0.69966354  0.23181993     0.26500
H780        H  0.26302152  0.79750561  0.13367637     0.15400
C781        C  0.22934335  0.61440512  0.28576479    -0.11900
C782        C  0.20436692  0.58050628  0.28664160     0.14600
C783        C  0.17051105  0.57190728  0.28289297     0.01500
C784        C  0.16228669  0.59717525  0.28545928    -0.16300
C785        C  0.18733042  0.63084806  0.29112478    -0.11100
C786        C  0.22122075  0.63961690  0.28683395     0.08300
C787        C  0.21412244  0.55599400  0.30057085     0.09300
S788        S  0.13671509  0.52909123  0.27806626    -0.25400
H789        H  0.13619668  0.59016633  0.28716741     0.19600
S790        S  0.25458648  0.68292844  0.28492292    -0.31100
H791        H  0.25532947  0.62123231  0.28756549     0.09900
C792        C  0.24008353  0.55334625  0.28001042     0.03100
C793        C  0.25138618  0.53338172  0.29873616    -0.13400
C794        C  0.23631503  0.51480578  0.33641171    -0.09100
C795        C  0.21042598  0.51748503  0.35690103     0.06500
C796        C  0.19987858  0.53816079  0.33907366    -0.14100
S797        S  0.25752842  0.57367688  0.22869416    -0.31100
H798        H  0.27089482  0.53085940  0.28281387     0.10800
S799        S  0.19051232  0.49594601  0.40658190    -0.28200
H800        H  0.18082793  0.54095511  0.35600629     0.08000
H801        H  0.28085521  0.67717120  0.29412586     0.26400
H802        H  0.28043276  0.56249620  0.22337153     0.21200
H803        H  0.21857859  0.49574549  0.42313001     0.26500
H804        H  0.15633576  0.51648340  0.26057670     0.15400
C805        C  0.07737054  0.27199580  0.23674491    -0.11900
C806        C  0.08987448  0.25820932  0.26681094     0.14600
C807        C  0.06747008  0.22600979  0.28322755     0.01500
C808        C  0.03427538  0.20844612  0.26892699    -0.16300
C809        C  0.02242627  0.22059670  0.23580046    -0.11100
C810        C  0.04417451  0.25359677  0.22098850     0.08300
C811        C  0.12557040  0.27817021  0.28228805     0.09300
S812        S  0.08017424  0.20433150  0.31973763    -0.25400
H813        H  0.01818662  0.18342085  0.28141990     0.19600
S814        S  0.03177558  0.27283345  0.18053818    -0.31100
H815        H  0.09377355  0.29713967  0.22488881     0.09900
C816        C  0.15326291  0.29098545  0.25344159     0.03100
C817        C  0.18598111  0.31198965  0.26961094    -0.13400
C818        C  0.19187869  0.32075672  0.31405300    -0.09100
C819        C  0.16458667  0.30463623  0.34315086     0.06500
C820        C  0.13197615  0.28441447  0.32715179    -0.14100
S821        S  0.14708434  0.28188418  0.19576725    -0.31100
H822        H  0.20654833  0.32472243  0.24689490     0.10800
S823        S  0.16965879  0.31308915  0.40093815    -0.28200
H824        H  0.11123841  0.27448501  0.34993539     0.08000
H825        H  0.00066207  0.26278348  0.20033950     0.26400
H826        H  0.18112282  0.29745525  0.18439296     0.21200
H827        H  0.20447185  0.32626914  0.40119556     0.26500
H828        H  0.11235814  0.21717887  0.30180847     0.15400
C829        C  0.13613085  0.28603722  0.75158972    -0.11900
C830        C  0.14976524  0.27243823  0.77998880     0.14600
C831        C  0.15073241  0.27992959  0.82494604     0.01500
C832        C  0.14007777  0.30181828  0.83992563    -0.16300
C833        C  0.12927021  0.31800886  0.81133631    -0.11100
C834        C  0.12555182  0.30831944  0.76672980     0.08300
C835        C  0.16246724  0.25030812  0.76247961     0.09300
S836        S  0.16714857  0.26396228  0.86504218    -0.25400
H837        H  0.14298379  0.30847379  0.87422963     0.19600
S838        S  0.10821216  0.32467232  0.72850673    -0.31100
H839        H  0.13424372  0.27949986  0.71734683     0.09900
C840        C  0.14539455  0.21557281  0.77050321     0.03100
C841        C  0.15950094  0.19612177  0.75710297    -0.13400
C842        C  0.19031178  0.21003689  0.73449164    -0.09100
C843        C  0.20710041  0.24492125  0.72580779     0.06500
C844        C  0.19309787  0.26446109  0.73973174    -0.14100
S845        S  0.10473204  0.19563145  0.79632429    -0.31100
H846        H  0.14554494  0.16941347  0.76279812     0.10800
S847        S  0.24676933  0.26626620  0.69796639    -0.28200
H848        H  0.20656478  0.29113697  0.73347343     0.08000
H849        H  0.11374910  0.31064163  0.69069801     0.26400
H850        H  0.09861510  0.16262393  0.79407262     0.21200
H851        H  0.25892718  0.24674652  0.71600929     0.26500
H852        H  0.19127543  0.26314278  0.83789258     0.15400
C853        C  0.23107165  0.42160603  0.04058775    -0.11900
C854        C  0.20249078  0.40950290  0.06707076     0.14600
C855        C  0.17113134  0.39874407  0.04797978     0.01500
C856        C  0.16924912  0.40203094  0.00314381    -0.16300
C857        C  0.19793321  0.41510624  0.97672039    -0.11100
C858        C  0.22916649  0.42471639  0.99561313     0.08300
C859        C  0.20657881  0.40992987  0.11463502     0.09300
S860        S  0.13287292  0.38125261  0.07915975    -0.25400
H861        H  0.14523228  0.39476155  0.98873906     0.19600
S862        S  0.26762219  0.44330764  0.96480773    -0.31100
H863        H  0.25519773  0.42988664  0.05534684     0.09900
C864        C  0.21324243  0.38682823  0.13445169     0.03100
C865        C  0.21977455  0.38967130  0.17904652    -0.13400
C866        C  0.22034722  0.41552426  0.20444986    -0.09100
C867        C  0.21259165  0.43810002  0.18457212     0.06500
C868        C  0.20547089  0.43483622  0.13993301    -0.14100
S869        S  0.21317584  0.35354230  0.10294480    -0.31100
H870        H  0.22487169  0.37174974  0.19412743     0.10800
S871        S  0.21353175  0.47269651  0.21331741    -0.28200
H872        H  0.20034700  0.45263255  0.12440910     0.08000
H873        H  0.25995011  0.46325287  0.93884680     0.26400
H874        H  0.22593798  0.34226823  0.13575387     0.21200
H875        H  0.24382055  0.48209653  0.23444957     0.26500
H876        H  0.14265168  0.36672317  0.11142511     0.15400
C877        C  0.18788397  0.42372217  0.62505759    -0.11900
C878        C  0.19145030  0.39694569  0.61056276     0.14600
C879        C  0.19092091  0.37415181  0.64108191     0.01500
C880        C  0.18710529  0.37893364  0.68550212    -0.16300
C881        C  0.18314206  0.40565044  0.70011844    -0.11100
C882        C  0.18392501  0.42855026  0.66924622     0.08300
C883        C  0.20049810  0.39720206  0.56424988     0.09300
S884        S  0.19497410  0.33866979  0.62556416    -0.25400
H885        H  0.18640458  0.36114642  0.70870331     0.19600
S886        S  0.18255505  0.46561090  0.68537422    -0.31100
H887        H  0.18949712  0.44169482  0.60148549     0.09900
C888        C  0.17654050  0.38674605  0.53082172     0.03100
C889        C  0.18721982  0.39466853  0.48733367    -0.13400
C890        C  0.22145691  0.41329256  0.47679997    -0.09100
C891        C  0.24516125  0.42162177  0.51050967     0.06500
C892        C  0.23446739  0.41376341  0.55359611    -0.14100
S893        S  0.13250709  0.36438188  0.54392752    -0.31100
H894        H  0.16888203  0.38759145  0.46171826     0.10800
S895        S  0.28934892  0.44126236  0.50080583    -0.28200
H896        H  0.25288422  0.42161328  0.57933081     0.08000
H897        H  0.17894511  0.47519943  0.64343579     0.26400
H898        H  0.12087491  0.35919189  0.50076173     0.21200
H899        H  0.28492840  0.41491540  0.47302154     0.26500
H900        H  0.18390364  0.33596379  0.58246223     0.15400
C901        C  0.18815710  0.63939992  0.78572715    -0.11900
C902        C  0.19300177  0.61972974  0.81547093     0.14600
C903        C  0.20684919  0.63309074  0.85673292     0.01500
C904        C  0.21577925  0.66603966  0.86723470    -0.16300
C905        C  0.21077914  0.68593704  0.83766371    -0.11100
C906        C  0.19697454  0.67241356  0.79610193     0.08300
C907        C  0.18488423  0.58582644  0.80187795     0.09300
S908        S  0.21440694  0.60968373  0.89701946    -0.25400
H909        H  0.22656876  0.67614191  0.89891661     0.19600
S910        S  0.19214109  0.69708671  0.75471469    -0.31100
H911        H  0.17792182  0.62885779  0.75401540     0.09900
C912        C  0.15214017  0.55829015  0.80537974     0.03100
C913        C  0.14657910  0.52576788  0.79960222    -0.13400
C914        C  0.17335207  0.52064372  0.79051967    -0.09100
C915        C  0.20540458  0.54855163  0.78179811     0.06500
C916        C  0.21086393  0.58094227  0.78784956    -0.14100
S917        S  0.11819222  0.56440293  0.82181739    -0.31100
H918        H  0.12215176  0.50446138  0.80688427     0.10800
S919        S  0.23994946  0.54298609  0.76580684    -0.28200
H920        H  0.23569966  0.60250569  0.78377287     0.08000
H921        H  0.18042570  0.67280132  0.72119276     0.26400
H922        H  0.09256298  0.53195739  0.81013729     0.21200
H923        H  0.26525045  0.57687587  0.76932785     0.26500
H924        H  0.18778311  0.57788846  0.88515292     0.15400
C925        C  0.37258604  0.75967638  0.78794385    -0.11900
C926        C  0.40307490  0.78454790  0.80543904     0.14600
C927        C  0.40767339  0.81645439  0.81570975     0.01500
C928        C  0.38078999  0.82190177  0.81130266    -0.16300
C929        C  0.34932219  0.79600267  0.79743925    -0.11100
C930        C  0.34552254  0.76486943  0.78430211     0.08300
C931        C  0.42815288  0.77502320  0.81584779     0.09300
S932        S  0.44617472  0.85023236  0.83783812    -0.25400
H933        H  0.38368321  0.84556168  0.82244411     0.19600
S934        S  0.30558608  0.73077944  0.76586875    -0.31100
H935        H  0.36946131  0.73542618  0.77969367     0.09900
C936        C  0.43218833  0.76712659  0.85871083     0.03100
C937        C  0.45424326  0.75545063  0.86657221    -0.13400
C938        C  0.47243811  0.75168105  0.83242122    -0.09100
C939        C  0.46811012  0.75941121  0.78936757     0.06500
C940        C  0.44593160  0.77090400  0.78165281    -0.14100
S941        S  0.40841591  0.77083454  0.90315020    -0.31100
H942        H  0.45750906  0.74942655  0.89942874     0.10800
S943        S  0.48888135  0.75267953  0.74348808    -0.28200
H944        H  0.44186782  0.77618241  0.74876770     0.08000
H945        H  0.31562883  0.70707760  0.75889449     0.26400
H946        H  0.42454954  0.76420340  0.93679652     0.21200
H947        H  0.47924869  0.76778474  0.71182620     0.26500
H948        H  0.46729077  0.83947242  0.82036609     0.15400
C949        C  0.70727752  0.89237500  0.73767085    -0.11900
C950        C  0.72045082  0.87625393  0.76219832     0.14600
C951        C  0.75498545  0.89380808  0.77121009     0.01500
C952        C  0.77517198  0.92669326  0.75666228    -0.16300
C953        C  0.76264268  0.94296472  0.73088591    -0.11100
C954        C  0.72786795  0.92534626  0.72178046     0.08300
C955        C  0.69757405  0.84202576  0.78022467     0.09300
S956        S  0.77522948  0.87533146  0.80019029    -0.25400
H957        H  0.80158388  0.93913967  0.76428327     0.19600
S958        S  0.70934779  0.94389861  0.68933617    -0.31100
H959        H  0.68071225  0.87894227  0.73094546     0.09900
C960        C  0.69030965  0.83728529  0.82514122     0.03100
C961        C  0.66787338  0.80503896  0.84088338    -0.13400
C962        C  0.65113304  0.77697123  0.81281271    -0.09100
C963        C  0.66043095  0.78148802  0.76812210     0.06500
C964        C  0.68312894  0.81381466  0.75239197    -0.14100
S965        S  0.70729721  0.87282299  0.86214678    -0.31100
H966        H  0.66108751  0.80217048  0.87504330     0.10800
S967        S  0.64243268  0.74774181  0.72880017    -0.28200
H968        H  0.68911833  0.81710091  0.71795834     0.08000
H969        H  0.67592380  0.91787946  0.69375102     0.26400
H970        H  0.69200885  0.85484424  0.90026963     0.21200
H971        H  0.64486764  0.72490948  0.75605437     0.26500
H972        H  0.75369458  0.84225665  0.78575572     0.15400
C973        C  0.40906011  0.55572722  0.79747273    -0.11900
C974        C  0.38450326  0.56298693  0.78469479     0.14600
C975        C  0.39419988  0.59509671  0.76888246     0.01500
C976        C  0.42751969  0.62059647  0.77257605    -0.16300
C977        C  0.45147777  0.61433043  0.79051826    -0.11100
C978        C  0.44271791  0.58111682  0.79991990     0.08300
C979        C  0.34951348  0.53956883  0.79735108     0.09300
S980        S  0.36463699  0.60557152  0.74744270    -0.25400
H981        H  0.43435828  0.64599573  0.76431533     0.19600
S982        S  0.47297069  0.57141166  0.82085624    -0.31100
H983        H  0.40148982  0.53094223  0.80937217     0.09900
C984        C  0.33060863  0.50773652  0.77809697     0.03100
C985        C  0.29814078  0.48609827  0.79330076    -0.13400
C986        C  0.28396248  0.49556660  0.82753873    -0.09100
C987        C  0.30328332  0.52787760  0.84671048     0.06500
C988        C  0.33579329  0.54928677  0.83137427    -0.14100
S989        S  0.34753749  0.49507348  0.73346355    -0.31100
H990        H  0.28368420  0.46168118  0.77798728     0.10800
S991        S  0.28764259  0.54266984  0.89065209    -0.28200
H992        H  0.35098114  0.57382221  0.84617678     0.08000
H993        H  0.45388153  0.53681332  0.81184719     0.26400
H994        H  0.31891071  0.46353052  0.72585677     0.21200
H995        H  0.31581502  0.57499997  0.89497846     0.26500
H996        H  0.34072886  0.57270225  0.73461328     0.15400
C997        C  0.38673169  0.56688273  0.25306018    -0.11900
C998        C  0.41525445  0.57540500  0.27795112     0.14600
C999        C  0.41822580  0.54973592  0.29782815     0.01500
C1000       C  0.39084851  0.51708903  0.29768571    -0.16300
C1001       C  0.36068978  0.50950715  0.27776721    -0.11100
C1002       C  0.35949328  0.53400213  0.25242927     0.08300
C1003       C  0.43728056  0.61095921  0.29070394     0.09300
S1004       S  0.45480987  0.55780652  0.32797561    -0.25400
H1005       H  0.39186671  0.49830749  0.31728188     0.19600
S1006       S  0.32228256  0.52582690  0.22396120    -0.31100
H1007       H  0.38445018  0.58642910  0.23730205     0.09900
C1008       C  0.45806778  0.63562585  0.26067500     0.03100
C1009       C  0.47674884  0.66921947  0.27453353    -0.13400
C1010       C  0.47496784  0.67857361  0.31786108    -0.09100
C1011       C  0.45488898  0.65352792  0.34811049     0.06500
C1012       C  0.43588427  0.62021619  0.33405760    -0.14100
S1013       S  0.46141700  0.62419690  0.20520309    -0.31100
H1014       H  0.49266169  0.68833738  0.25150968     0.10800
S1015       S  0.45377583  0.66207606  0.40538411    -0.28200
H1016       H  0.42003039  0.60117862  0.35726859     0.08000
H1017       H  0.30944499  0.49123983  0.21826166     0.26400
H1018       H  0.48177680  0.65704507  0.18998274     0.21200
H1019       H  0.48824655  0.68541178  0.40856219     0.26500
H1020       H  0.47725085  0.58717769  0.30563535     0.15400
C1021       C  0.68579553  0.81538388  0.33177342    -0.11900
C1022       C  0.69031632  0.81516760  0.28651707     0.14600
C1023       C  0.67474162  0.82797160  0.25967708     0.01500
C1024       C  0.65347647  0.83826793  0.27835164    -0.16300
C1025       C  0.64675476  0.83585265  0.32338583    -0.11100
C1026       C  0.66491875  0.82609671  0.35034571     0.08300
C1027       C  0.71301330  0.80339653  0.26908965     0.09300
S1028       S  0.67965904  0.83074348  0.20121156    -0.25400
H1029       H  0.63986917  0.84548629  0.25695320     0.19600
S1030       S  0.66224853  0.82650553  0.40892190    -0.31100
H1031       H  0.69869969  0.80711133  0.35291613     0.09900
C1032       C  0.74646459  0.82644096  0.25811603     0.03100
C1033       C  0.76753204  0.81477816  0.24318084    -0.13400
C1034       C  0.75648926  0.78023749  0.23913809    -0.09100
C1035       C  0.72289783  0.75707344  0.25064041     0.06500
C1036       C  0.70161368  0.76884348  0.26520517    -0.14100
S1037       S  0.76253838  0.87095453  0.26358198    -0.31100
H1038       H  0.79296030  0.83300983  0.23399413     0.10800
S1039       S  0.70617441  0.71247045  0.24927069    -0.28200
H1040       H  0.67602775  0.75088004  0.27420535     0.08000
H1041       H  0.65116149  0.84968457  0.41128009     0.26400
H1042       H  0.79615333  0.88128438  0.25462720     0.21200
H1043       H  0.73580662  0.71427913  0.26339643     0.26500
H1044       H  0.69025509  0.80743459  0.19550096     0.15400
C1045       C  0.57361596  0.76914759  0.63658094    -0.11900
C1046       C  0.55130785  0.74135708  0.61124904     0.14600
C1047       C  0.53159140  0.70999011  0.63109734     0.01500
C1048       C  0.53462161  0.70715226  0.67572493    -0.16300
C1049       C  0.55692134  0.73481828  0.70162673    -0.11100
C1050       C  0.57665837  0.76637037  0.68159428     0.08300
C1051       C  0.54732258  0.74649826  0.56493674     0.09300
S1052       S  0.50078333  0.67284242  0.60230239    -0.25400
H1053       H  0.51887671  0.68286848  0.69042130     0.19600
S1054       S  0.60574513  0.80329903  0.71223286    -0.31100
H1055       H  0.58819781  0.79322794  0.62097169     0.09900
C1056       C  0.52517710  0.75704610  0.55226615     0.03100
C1057       C  0.52175531  0.76145701  0.50804317    -0.13400
C1058       C  0.54016053  0.75570746  0.47571076    -0.09100
C1059       C  0.56237579  0.74489322  0.48901484     0.06500
C1060       C  0.56568838  0.74051869  0.53335308    -0.14100
S1061       S  0.50106637  0.76467599  0.59256023    -0.31100
H1062       H  0.50437913  0.76930499  0.49880184     0.10800
S1063       S  0.58721079  0.73604258  0.45187076    -0.28200
H1064       H  0.58263686  0.73225193  0.54341286     0.08000
H1065       H  0.62177672  0.82408062  0.67636913     0.26400
H1066       H  0.48465986  0.77474444  0.56348762     0.21200
H1067       H  0.60160676  0.76760469  0.43233842     0.26500
H1068       H  0.51370574  0.68207800  0.56007506     0.15400
C1069       C  0.58312655  0.81108515  0.12954426    -0.11900
C1070       C  0.56838439  0.77805601  0.11356289     0.14600
C1071       C  0.55558782  0.75128468  0.14348613     0.01500
C1072       C  0.55700083  0.75808903  0.18815031    -0.16300
C1073       C  0.56929545  0.79083931  0.20366766    -0.11100
C1074       C  0.58298250  0.81772811  0.17417639     0.08300
C1075       C  0.56644703  0.77228422  0.06570997     0.09300
S1076       S  0.53525307  0.70778986  0.12699874    -0.25400
H1077       H  0.54633380  0.73742230  0.21080562     0.19600
S1078       S  0.60039764  0.86051543  0.19313194    -0.31100
H1079       H  0.59387821  0.83159527  0.10673160     0.09900
C1080       C  0.54948664  0.78318165  0.03840662     0.03100
C1081       C  0.54634920  0.77509435  0.99385427    -0.13400
C1082       C  0.55887922  0.75555971  0.97640001    -0.09100
C1083       C  0.57674622  0.74563042  0.00328326     0.06500
C1084       C  0.58082175  0.75457174  0.04739243    -0.14100
S1085       S  0.52907670  0.80464616  0.06048666    -0.31100
H1086       H  0.53214622  0.78202964  0.97307567     0.10800
S1087       S  0.59390271  0.72054990  0.98353674    -0.28200
H1088       H  0.59440622  0.74672554  0.06795254     0.08000
H1089       H  0.61036886  0.87579722  0.15216002     0.26400
H1090       H  0.52058580  0.81262166  0.02036118     0.21200
H1091       H  0.59871752  0.73162518  0.94024824     0.26500
H1092       H  0.51981590  0.71137707  0.08993907     0.15400
C1093       C  0.41111166  0.81934189  0.29938627    -0.11900
C1094       C  0.38364811  0.78691612  0.29381128     0.14600
C1095       C  0.38878824  0.76105717  0.27848688     0.01500
C1096       C  0.42136427  0.76718148  0.27427519    -0.16300
C1097       C  0.44907139  0.79858322  0.28531260    -0.11100
C1098       C  0.44382529  0.82563754  0.29449110     0.08300
C1099       C  0.35051508  0.77980860  0.30918734     0.09300
S1100       S  0.35496574  0.71882924  0.26881632    -0.25400
H1101       H  0.42496004  0.74633703  0.26625971     0.19600
S1102       S  0.47734569  0.86773948  0.30517085    -0.31100
H1103       H  0.40707003  0.83943158  0.31005512     0.09900
C1104       C  0.33976306  0.76902594  0.35205712     0.03100
C1105       C  0.30744690  0.76082042  0.36496465    -0.13400
C1106       C  0.28557274  0.76304221  0.33574122    -0.09100
C1107       C  0.29669642  0.77400618  0.29249302     0.06500
C1108       C  0.32923295  0.78273898  0.28014441    -0.14100
S1109       S  0.36726919  0.76564531  0.39024333    -0.31100
H1110       H  0.29914008  0.75251162  0.39790081     0.10800
S1111       S  0.26938950  0.77466195  0.25127791    -0.28200
H1112       H  0.33791099  0.79075438  0.24722656     0.08000
H1113       H  0.49670339  0.86787013  0.26952935     0.26400
H1114       H  0.34345205  0.75010040  0.42358954     0.21200
H1115       H  0.29240731  0.78614828  0.21654962     0.26500
H1116       H  0.33206394  0.72786780  0.25423574     0.15400
C1117       C  0.80635580  0.62880121  0.08353131    -0.11900
C1118       C  0.81289387  0.60845655  0.11081303     0.14600
C1119       C  0.80237046  0.60600890  0.15500804     0.01500
C1120       C  0.79170467  0.62762492  0.17157012    -0.16300
C1121       C  0.78739208  0.64945861  0.14452930    -0.11100
C1122       C  0.79099639  0.64649498  0.09917777     0.08300
C1123       C  0.83173632  0.59156983  0.09344429     0.09300
S1124       S  0.80164730  0.57588509  0.19226659    -0.25400
H1125       H  0.78792056  0.62830799  0.20637808     0.19600
S1126       S  0.77700284  0.66506308  0.05967336    -0.31100
H1127       H  0.81366318  0.63167242  0.04965352     0.09900
C1128       C  0.82556704  0.57575539  0.05178041     0.03100
C1129       C  0.84409068  0.56080065  0.03767650    -0.13400
C1130       C  0.86684701  0.55818640  0.06496683    -0.09100
C1131       C  0.87330880  0.57404822  0.10624345     0.06500
C1132       C  0.85701047  0.59161825  0.11901593    -0.14100
S1133       S  0.79154962  0.57047043  0.01779179    -0.31100
H1134       H  0.83850072  0.54828635  0.00627491     0.10800
S1135       S  0.90167599  0.57233955  0.14438720    -0.28200
H1136       H  0.86363410  0.60477700  0.15002676     0.08000
H1137       H  0.74938699  0.66032905  0.08467248     0.26400
H1138       H  0.80194257  0.56160858  0.97923459     0.21200
H1139       H  0.92056298  0.56638039  0.11331090     0.26500
H1140       H  0.79530998  0.55143937  0.16009583     0.15400
C1141       C  0.01330780  0.47334039  0.99600820    -0.11900
C1142       C  0.02556376  0.48118450  0.95327730     0.14600
C1143       C  0.01486388  0.49932080  0.92761022     0.01500
C1144       C  0.99055449  0.50657526  0.94389736    -0.16300
C1145       C  0.97682454  0.49673641  0.98584453    -0.11100
C1146       C  0.98999652  0.48142387  0.01259055     0.08300
C1147       C  0.04756885  0.46815563  0.93627377     0.09300
S1148       S  0.02998749  0.51243931  0.87306180    -0.25400
H1149       H  0.98030390  0.51739904  0.92231150     0.19600
S1150       S  0.97541089  0.46846757  0.06739383    -0.31100
H1151       H  0.02097418  0.45949058  0.01633167     0.09900
C1152       C  0.07767821  0.47579185  0.95724628     0.03100
C1153       C  0.09700989  0.46238167  0.94100222    -0.13400
C1154       C  0.08762850  0.44146263  0.90367268    -0.09100
C1155       C  0.05694457  0.43305083  0.88349827     0.06500
C1156       C  0.03744040  0.44631208  0.89989164    -0.14100
S1157       S  0.09311632  0.50468858  0.00298826    -0.31100
H1158       H  0.12057951  0.46951494  0.95653409     0.10800
S1159       S  0.04250882  0.40767778  0.83485015    -0.28200
H1160       H  0.01414542  0.43965928  0.88386973     0.08000
H1161       H  0.96431297  0.49135301  0.07306424     0.26400
H1162       H  0.12048836  0.50080122  0.01286435     0.21200
H1163       H  0.04490287  0.38122995  0.85294321     0.26500
H1164       H  0.06136376  0.51566649  0.88011816     0.15400
C1165       C  0.81056089  0.16277565  0.65028229    -0.11900
C1166       C  0.81912777  0.17109573  0.60625340     0.14600
C1167       C  0.81692920  0.14582836  0.57761978     0.01500
C1168       C  0.80810073  0.11402293  0.59383912    -0.16300
C1169       C  0.80177261  0.10637708  0.63843451    -0.11100
C1170       C  0.80195049  0.13100578  0.66647131     0.08300
C1171       C  0.83014613  0.20614428  0.59151120     0.09300
S1172       S  0.82664992  0.15297130  0.52036181    -0.25400
H1173       H  0.80843538  0.09585732  0.57170274     0.19600
S1174       S  0.79179608  0.12350126  0.72350138    -0.31100
H1175       H  0.81128961  0.18150645  0.67252683     0.09900
C1176       C  0.80734816  0.21764920  0.58931010     0.03100
C1177       C  0.81844135  0.25076081  0.57649987    -0.13400
C1178       C  0.85221539  0.27365454  0.56535813    -0.09100
C1179       C  0.87506832  0.26189817  0.56763160     0.06500
C1180       C  0.86381402  0.22849801  0.58024651    -0.14100
S1181       S  0.76355905  0.18964829  0.60130450    -0.31100
H1182       H  0.80009790  0.25851837  0.57440004     0.10800
S1183       S  0.91885340  0.28815471  0.55557246    -0.28200
H1184       H  0.88162496  0.21997746  0.58191372     0.08000
H1185       H  0.77338646  0.08832152  0.71995758     0.26400
H1186       H  0.75249598  0.21213954  0.59222656     0.21200
H1187       H  0.92215920  0.31562362  0.57998982     0.26500
H1188       H  0.81676607  0.17684601  0.51547139     0.15400
C1189       C  0.01951598  0.50632967  0.50011143    -0.11900
C1190       C  0.02268520  0.51082491  0.45484702     0.14600
C1191       C  0.00615228  0.48204782  0.42759333     0.01500
C1192       C  0.98590261  0.45012178  0.44594042    -0.16300
C1193       C  0.98070688  0.44586642  0.49125898    -0.11100
C1194       C  0.99914680  0.47449937  0.51845291     0.08300
C1195       C  0.04591736  0.54525035  0.43740044     0.09300
S1196       S  0.00832840  0.48451525  0.36899244    -0.25400
H1197       H  0.97181698  0.42890249  0.42427077     0.19600
S1198       S  0.99719552  0.47223679  0.57708361    -0.31100
H1199       H  0.03304388  0.52790643  0.52144351     0.09900
C1200       C  0.03770995  0.57080014  0.43631645     0.03100
C1201       C  0.06114690  0.60298599  0.42013252    -0.13400
C1202       C  0.09328451  0.61069608  0.40627318    -0.09100
C1203       C  0.10124383  0.58469350  0.40791506     0.06500
C1204       C  0.07754395  0.55267198  0.42297657    -0.14100
S1205       S  0.99721223  0.56221109  0.45521844    -0.31100
H1206       H  0.05463726  0.62234750  0.41899332     0.10800
S1207       S  0.14144922  0.59106725  0.39076600    -0.28200
H1208       H  0.08387722  0.53317747  0.42434295     0.08000
H1209       H  0.98891037  0.43852028  0.57885633     0.26400
H1210       H  0.00367587  0.59527530  0.45224201     0.21200
H1211       H  0.13240884  0.55712878  0.38805909     0.26500
H1212       H  0.01275628  0.51680802  0.36640608     0.15400
C1213       C  0.88226280  0.38744729  0.72801556    -0.11900
C1214       C  0.88190009  0.41517046  0.74608425     0.14600
C1215       C  0.88453384  0.44054072  0.71834231     0.01500
C1216       C  0.88336591  0.43567937  0.67312773    -0.16300
C1217       C  0.88086568  0.40651848  0.65503838    -0.11100
C1218       C  0.88235963  0.38312624  0.68280680     0.08300
C1219       C  0.87732429  0.41615085  0.79374713     0.09300
S1220       S  0.88875119  0.47924287  0.73869827    -0.25400
H1221       H  0.88332834  0.45424862  0.65207167     0.19600
S1222       S  0.88487393  0.34789685  0.66114249    -0.31100
H1223       H  0.88148626  0.36869525  0.74947145     0.09900
C1224       C  0.84811152  0.41386409  0.81161352     0.03100
C1225       C  0.84616598  0.41796718  0.85665454    -0.13400
C1226       C  0.87222152  0.42306589  0.88425563    -0.09100
C1227       C  0.90012332  0.42247264  0.86666626     0.06500
C1228       C  0.90254466  0.41931069  0.82160768    -0.14100
S1229       S  0.81350055  0.40608599  0.77710530    -0.31100
H1230       H  0.82495658  0.41860520  0.87020189     0.10800
S1231       S  0.93422046  0.42752008  0.89982335    -0.28200
H1232       H  0.92461817  0.42016843  0.80804815     0.08000
H1233       H  0.89099844  0.33729343  0.70092191     0.26400
H1234       H  0.79192040  0.40457284  0.81062816     0.21200
H1235       H  0.91456558  0.41191647  0.93675207     0.26500
H1236       H  0.90454144  0.48008767  0.77794692     0.15400
C1237       C  0.92039910  0.46192277  0.21938198    -0.11900
C1238       C  0.89750299  0.43314897  0.24223283     0.14600
C1239       C  0.86822516  0.40846099  0.22080108     0.01500
C1240       C  0.86334193  0.41243343  0.17696486    -0.16300
C1241       C  0.88613167  0.44118594  0.15420437    -0.11100
C1242       C  0.91469858  0.46658855  0.17596483     0.08300
C1243       C  0.90408055  0.42987210  0.28860609     0.09300
S1244       S  0.83532657  0.37206335  0.24781493    -0.25400
H1245       H  0.84090440  0.39334361  0.16074445     0.19600
S1246       S  0.94375523  0.50631708  0.15175002    -0.31100
H1247       H  0.94248975  0.48127768  0.23588060     0.09900
C1248       C  0.90755055  0.40299263  0.30265518     0.03100
C1249       C  0.90729390  0.39724087  0.34729778    -0.13400
C1250       C  0.90547998  0.41879622  0.37860167    -0.09100
C1251       C  0.90752888  0.44869825  0.36420036     0.06500
C1252       C  0.90554993  0.45327779  0.31946897    -0.14100
S1253       S  0.91207379  0.37583172  0.26383998    -0.31100
H1254       H  0.90784584  0.37531596  0.35785459     0.10800
S1255       S  0.91194922  0.48144587  0.40069838    -0.28200
H1256       H  0.90459454  0.47495644  0.30867082     0.08000
H1257       H  0.92284579  0.50586403  0.11867554     0.26400
H1258       H  0.91823019  0.35721890  0.29434765     0.21200
H1259       H  0.93958758  0.48364006  0.42236528     0.26500
H1260       H  0.83959785  0.38740728  0.28895044     0.15400
C1261       C  0.73842157  0.59282335  0.57864989    -0.11900
C1262       C  0.75389291  0.57823271  0.60186379     0.14600
C1263       C  0.73428465  0.54393553  0.61236666     0.01500
C1264       C  0.70070189  0.52546057  0.59969843    -0.16300
C1265       C  0.68558678  0.53909688  0.57372010    -0.11100
C1266       C  0.70487171  0.57377721  0.56430178     0.08300
C1267       C  0.78951493  0.59945230  0.61731742     0.09300
S1268       S  0.75106555  0.52122754  0.63920508    -0.25400
H1269       H  0.68689303  0.49913189  0.60800344     0.19600
S1270       S  0.68875841  0.59504933  0.53313643    -0.31100
H1271       H  0.75268061  0.61933496  0.57141480     0.09900
C1272       C  0.81666435  0.61815730  0.58861378     0.03100
C1273       C  0.84909423  0.63948844  0.60547810    -0.13400
C1274       C  0.85525308  0.64300671  0.65063708    -0.09100
C1275       C  0.82866092  0.62185466  0.67883365     0.06500
C1276       C  0.79628654  0.60097871  0.66209773    -0.14100
S1277       S  0.81011910  0.61549243  0.53045145    -0.31100
H1278       H  0.86914322  0.65551581  0.58353898     0.10800
S1279       S  0.83547436  0.62254274  0.73681936    -0.28200
H1280       H  0.77578346  0.58647413  0.68427700     0.08000
H1281       H  0.65836749  0.58090465  0.55630870     0.26400
H1282       H  0.84273795  0.64048420  0.51886225     0.21200
H1283       H  0.80362065  0.59556245  0.74746397     0.26500
H1284       H  0.78308758  0.53936672  0.62036212     0.15400
C1285       C  0.40870774  0.44024435  0.40490088    -0.11900
C1286       C  0.42517634  0.47069633  0.42844950     0.14600
C1287       C  0.40780069  0.48772119  0.43749884     0.01500
C1288       C  0.37441214  0.47356859  0.42469701    -0.16300
C1289       C  0.35750866  0.44302604  0.40113212    -0.11100
C1290       C  0.37527129  0.42633975  0.39106574     0.08300
C1291       C  0.45915968  0.48261955  0.44676557     0.09300
S1292       S  0.42704450  0.52795075  0.46486690    -0.25400
H1293       H  0.36202600  0.48763405  0.43167336     0.19600
S1294       S  0.35655607  0.38693607  0.36197930    -0.31100
H1295       H  0.42178186  0.42683004  0.39806995     0.09900
C1296       C  0.46333625  0.47826087  0.49110168     0.03100
C1297       C  0.49532521  0.48794008  0.50697123    -0.13400
C1298       C  0.52362011  0.50111796  0.47941738    -0.09100
C1299       C  0.51968188  0.50827529  0.43581340     0.06500
C1300       C  0.48758386  0.49851369  0.41988240    -0.14100
S1301       S  0.42743120  0.45765801  0.52681587    -0.31100
H1302       H  0.49780153  0.48243701  0.54036430     0.10800
S1303       S  0.55401061  0.52761620  0.39796612    -0.28200
H1304       H  0.48465789  0.50286931  0.38606367     0.08000
H1305       H  0.32450357  0.37457712  0.38014598     0.26400
H1306       H  0.44497484  0.45931283  0.56476006     0.21200
H1307       H  0.57610255  0.55127455  0.42850827     0.26500
H1308       H  0.45951350  0.53941279  0.44879924     0.15400
C1309       C  0.71520182  0.43719153  0.43797235    -0.11900
C1310       C  0.74203558  0.45863712  0.46499451     0.14600
C1311       C  0.74442215  0.48843679  0.48133703     0.01500
C1312       C  0.71770923  0.49376222  0.47515496    -0.16300
C1313       C  0.68894050  0.46994565  0.45289763    -0.11100
C1314       C  0.68869258  0.44272254  0.43152154     0.08300
C1315       C  0.76491546  0.44726208  0.47890503     0.09300
S1316       S  0.77927578  0.51887985  0.51352732    -0.25400
H1317       H  0.71797360  0.51476141  0.49167903     0.19600
S1318       S  0.65375613  0.41271425  0.39909851    -0.31100
H1319       H  0.71382732  0.41482194  0.42425091     0.09900
C1320       C  0.76419992  0.43632482  0.52181803     0.03100
C1321       C  0.78555507  0.42446509  0.53306143    -0.13400
C1322       C  0.80675084  0.42243188  0.50187281    -0.09100
C1323       C  0.80565494  0.43139690  0.45828808     0.06500
C1324       C  0.78539794  0.44441962  0.44759933    -0.14100
S1325       S  0.73515048  0.43610543  0.56167764    -0.31100
H1326       H  0.78583965  0.41682970  0.56614929     0.10800
S1327       S  0.82734293  0.42461681  0.41390895    -0.28200
H1328       H  0.78476633  0.45143950  0.41424039     0.08000
H1329       H  0.64112839  0.43401826  0.39055577     0.26400
H1330       H  0.74306622  0.42099453  0.59529932     0.21200
H1331       H  0.82706930  0.39672789  0.43176970     0.26500
H1332       H  0.80279097  0.51104639  0.49667327     0.15400
C1333       C  0.40532259  0.23208515  0.11972199    -0.11900
C1334       C  0.37328870  0.21312643  0.10133813     0.14600
C1335       C  0.36320386  0.22954322  0.07146732     0.01500
C1336       C  0.38633846  0.26239996  0.05729672    -0.16300
C1337       C  0.41930880  0.28028749  0.07335929    -0.11100
C1338       C  0.42779188  0.26526244  0.10708922     0.08300
C1339       C  0.35108554  0.17717254  0.11581495     0.09300
S1340       S  0.32126294  0.21022597  0.05019182    -0.25400
H1341       H  0.37893798  0.27339346  0.03200280     0.19600
S1342       S  0.46706208  0.28723572  0.13577323    -0.31100
H1343       H  0.41310445  0.22081847  0.14419025     0.09900
C1344       C  0.33795429  0.14925038  0.08679335     0.03100
C1345       C  0.31566646  0.11654542  0.10227758    -0.13400
C1346       C  0.30648348  0.11053655  0.14651564    -0.09100
C1347       C  0.32237166  0.13806220  0.17601943     0.06500
C1348       C  0.34403913  0.17072180  0.16044786    -0.14100
S1349       S  0.34924426  0.15489867  0.02984676    -0.31100
H1350       H  0.30357231  0.09594692  0.07925192     0.10800
S1351       S  0.31438482  0.13187877  0.23390630    -0.28200
H1352       H  0.35493849  0.19164861  0.18316286     0.08000
H1353       H  0.47066041  0.31914642  0.13159929     0.26400
H1354       H  0.33337773  0.12067622  0.01847497     0.21200
H1355       H  0.33455271  0.16562102  0.24679563     0.35500
H1356       H  0.30546233  0.18883693  0.08556515     0.15400
C1357       C  0.66562109  0.40730044  0.96586271    -0.11900
C1358       C  0.68204210  0.43757505  0.94305992     0.14600
C1359       C  0.66362707  0.45219885  0.92897006     0.01500
C1360       C  0.63005567  0.43790856  0.94125216    -0.16300
C1361       C  0.61400491  0.40896677  0.96732796    -0.11100
C1362       C  0.63185024  0.39258426  0.97758794     0.08300
C1363       C  0.71896598  0.45683560  0.94486193     0.09300
S1364       S  0.68231779  0.49068942  0.89870531    -0.25400
H1365       H  0.61687091  0.45053656  0.93168667     0.19600
S1366       S  0.61379033  0.35365424  0.00662286    -0.31100
H1367       H  0.67978738  0.39599198  0.97671431     0.09900
C1368       C  0.73454516  0.47628209  0.98215556     0.03100
C1369       C  0.76834353  0.48795769  0.98901393    -0.13400
C1370       C  0.78743632  0.48105355  0.95927678    -0.09100
C1371       C  0.77292879  0.46611928  0.91872803     0.06500
C1372       C  0.73842177  0.45290475  0.91258793    -0.14100
S1373       S  0.71060212  0.48353106  0.02323842    -0.31100
H1374       H  0.77926184  0.50027855  0.01967425     0.10800
S1375       S  0.79644706  0.46190283  0.87479140    -0.28200
H1376       H  0.72656326  0.43887497  0.88312671     0.08000
H1377       H  0.58499877  0.33782380  0.98037541     0.26400
H1378       H  0.73666100  0.50079463  0.05339506     0.21200
H1379       H  0.82476282  0.49382810  0.88153183     0.26500
H1380       H  0.70820942  0.48732521  0.87995929     0.15400
C1381       C  0.49106508  0.50522028  0.00156964    -0.11900
C1382       C  0.48935275  0.51142589  0.95723486     0.14600
C1383       C  0.47478143  0.48348892  0.92822747     0.01500
C1384       C  0.46504414  0.45114119  0.94329009    -0.16300
C1385       C  0.46861389  0.44537712  0.98725270    -0.11100
C1386       C  0.48010386  0.47277287  0.01687847     0.08300
C1387       C  0.50376068  0.54715752  0.94237608     0.09300
S1388       S  0.46864878  0.48756403  0.87135617    -0.25400
H1389       H  0.45670371  0.43075654  0.91983463     0.19600
S1390       S  0.48280393  0.46815398  0.07469406    -0.31100
H1391       H  0.50173520  0.52602047  0.02454392     0.09900
C1392       C  0.49272120  0.56822683  0.96004558     0.03100
C1393       C  0.50657518  0.60128764  0.94506420    -0.13400
C1394       C  0.53070213  0.61432073  0.91137245    -0.09100
C1395       C  0.54268272  0.59356521  0.89490224     0.06500
C1396       C  0.52927315  0.56058848  0.91054528    -0.14100
S1397       S  0.45873881  0.55233847  0.99904232    -0.31100
H1398       H  0.49699478  0.61659499  0.95819396     0.10800
S1399       S  0.57307404  0.60654449  0.85173656    -0.28200
H1400       H  0.53847774  0.54500068  0.89716493     0.08000
H1401       H  0.45811815  0.43394055  0.07566842     0.26400
H1402       H  0.45817617  0.58220133  0.00526600     0.21200
H1403       H  0.59556317  0.63707463  0.87238509     0.26500
H1404       H  0.46150435  0.51335221  0.87817950     0.15400
C1405       C  0.55666832  0.40454795  0.20739689    -0.11900
C1406       C  0.54814463  0.42801818  0.22227044     0.14600
C1407       C  0.53893887  0.44443043  0.19166962     0.01500
C1408       C  0.53785012  0.43653688  0.14716699    -0.16300
C1409       C  0.54529599  0.41218475  0.13248403    -0.11100
C1410       C  0.55567755  0.39673789  0.16304651     0.08300
C1411       C  0.55182262  0.43662738  0.26944843     0.09300
S1412       S  0.52745896  0.47494215  0.20742215    -0.25400
H1413       H  0.52966653  0.44836723  0.12409671     0.19600
S1414       S  0.56908236  0.36768010  0.14735473    -0.31100
H1415       H  0.56474412  0.39264548  0.23053482     0.09900
C1416       C  0.52960041  0.41429977  0.30084379     0.03100
C1417       C  0.53565881  0.42269631  0.34534914    -0.13400
C1418       C  0.56374455  0.45291214  0.35927405    -0.09100
C1419       C  0.58538815  0.47573240  0.32733349     0.06500
C1420       C  0.57916939  0.46717712  0.28301560    -0.14100
S1421       S  0.49351927  0.37514314  0.28412316    -0.31100
H1422       H  0.51895589  0.40520290  0.36943851     0.10800
S1423       S  0.62083209  0.51617672  0.34188804    -0.28200
H1424       H  0.59602541  0.48410997  0.25856476     0.08000
H1425       H  0.58294204  0.38283456  0.10714304     0.26400
H1426       H  0.48148268  0.36320213  0.32619773     0.21200
H1427       H  0.62930593  0.52914452  0.29953680     0.26500
H1428       H  0.51510784  0.46189741  0.24896276     0.15400
C1429       C  0.51936247  0.43090491  0.69675002    -0.11900
C1430       C  0.52816718  0.41197009  0.72291423     0.14600
C1431       C  0.54344727  0.39525660  0.70338699     0.01500
C1432       C  0.55202682  0.40007186  0.65919524    -0.16300
C1433       C  0.54446527  0.42009622  0.63336527    -0.11100
C1434       C  0.52751187  0.43527487  0.65231318     0.08300
C1435       C  0.52193107  0.41076220  0.77052392     0.09300
S1436       S  0.55281378  0.36765870  0.73307702    -0.25400
H1437       H  0.56485609  0.38816437  0.64478279     0.19600
S1438       S  0.51784138  0.46234805  0.62226642    -0.31100
H1439       H  0.50729088  0.44347435  0.71143998     0.09900
C1440       C  0.54841037  0.42629131  0.80076307     0.03100
C1441       C  0.54132063  0.42223898  0.84558239    -0.13400
C1442       C  0.50832298  0.40279099  0.86070667    -0.09100
C1443       C  0.48176668  0.38873901  0.83041842     0.06500
C1444       C  0.48887011  0.39299916  0.78567256    -0.14100
S1445       S  0.59122553  0.45105427  0.78232873    -0.31100
H1446       H  0.56158555  0.43308108  0.86890430     0.10800
S1447       S  0.43872223  0.36583573  0.84853133    -0.28200
H1448       H  0.46871155  0.38176716  0.76223413     0.08000
H1449       H  0.54925185  0.47958981  0.60164656     0.26400
H1450       H  0.60618600  0.45814557  0.82373259     0.21200
H1451       H  0.42401087  0.35734132  0.80698500     0.26500
H1452       H  0.52656477  0.35710376  0.76340838     0.15400
C1453       C  0.36967710  0.11034935  0.57359819    -0.11900
C1454       C  0.38185504  0.13397421  0.60808264     0.14600
C1455       C  0.41237403  0.14141878  0.62763777     0.01500
C1456       C  0.43045452  0.12674137  0.61119129    -0.16300
C1457       C  0.41933876  0.10450414  0.57509212    -0.11100
C1458       C  0.38767781  0.09534251  0.55742579     0.08300
C1459       C  0.36113051  0.14854800  0.62458436     0.09300
S1460       S  0.43059927  0.17077615  0.67237812    -0.25400
H1461       H  0.45459216  0.13428335  0.62541491     0.19600
S1462       S  0.37006784  0.06669668  0.51211535    -0.31100
H1463       H  0.34587812  0.10359119  0.55895998     0.09900
C1464       C  0.35405446  0.16932326  0.59882005     0.03100
C1465       C  0.32979368  0.17741244  0.61289279    -0.13400
C1466       C  0.31257639  0.16548896  0.65255877    -0.09100
C1467       C  0.32328234  0.14879540  0.68063922     0.06500
C1468       C  0.34687341  0.14011690  0.66632425    -0.14100
S1469       S  0.37512432  0.18464706  0.54734398    -0.31100
H1470       H  0.32201386  0.19033406  0.59115442     0.10800
S1471       S  0.30402242  0.13532677  0.73343709    -0.28200
H1472       H  0.35292745  0.12512150  0.68684042     0.08000
H1473       H  0.37564925  0.04240080  0.53080471     0.26400
H1474       H  0.36272866  0.20617921  0.53917737     0.21200
H1475       H  0.32332773  0.12163006  0.74730679     0.26500
H1476       H  0.41816370  0.19156649  0.66025762     0.15400
C1477       C  0.66215521  0.18410869  0.43410979    -0.11900
C1478       C  0.68264724  0.20800401  0.46503182     0.14600
C1479       C  0.66930781  0.21011129  0.50552882     0.01500
C1480       C  0.63544739  0.18802813  0.51447537    -0.16300
C1481       C  0.61461553  0.16381928  0.48370696    -0.11100
C1482       C  0.62819701  0.16195437  0.44279983     0.08300
C1483       C  0.71752378  0.23248848  0.45361496     0.09300
S1484       S  0.69548773  0.24118504  0.54566897    -0.25400
H1485       H  0.62523719  0.18938267  0.54578074     0.19600
S1486       S  0.60252213  0.13300950  0.40027933    -0.31100
H1487       H  0.67279533  0.18336574  0.40286890     0.09900
C1488       C  0.74403586  0.22764646  0.46525488     0.03100
C1489       C  0.77692176  0.25475811  0.46310906    -0.13400
C1490       C  0.78334410  0.28647274  0.45024685    -0.09100
C1491       C  0.75699844  0.28999970  0.43387924     0.06500
C1492       C  0.72430072  0.26300477  0.43592651    -0.14100
S1493       S  0.73571177  0.18800625  0.48665760    -0.31100
H1494       H  0.79714044  0.25217610  0.47601831     0.10800
S1495       S  0.76347758  0.32914955  0.41343470    -0.28200
H1496       H  0.70382250  0.26641552  0.42624115     0.08000
H1497       H  0.62822223  0.14102204  0.36973616     0.26400
H1498       H  0.76930767  0.19698115  0.49249384     0.21200
H1499       H  0.79668990  0.34087529  0.40017536     0.26500
H1500       H  0.67047625  0.23278598  0.57740830     0.15400
C1501       C  0.48234960  0.88244225  0.45762878    -0.11900
C1502       C  0.49678389  0.91512637  0.44155420     0.14600
C1503       C  0.52484946  0.92660939  0.41333060     0.01500
C1504       C  0.53528142  0.90432559  0.39853821    -0.16300
C1505       C  0.51953529  0.87093359  0.41280866    -0.11100
C1506       C  0.49376862  0.86076155  0.44462416     0.08300
C1507       C  0.48269743  0.93663784  0.45639622     0.09300
S1508       S  0.54881383  0.96944164  0.39536677    -0.25400
H1509       H  0.55531312  0.91297215  0.37478749     0.19600
S1510       S  0.47466518  0.82059363  0.47093666    -0.31100
H1511       H  0.46187687  0.87365895  0.48074791     0.09900
C1512       C  0.46879651  0.94976408  0.42731484     0.03100
C1513       C  0.45919303  0.97262318  0.44274139    -0.13400
C1514       C  0.46225742  0.98206598  0.48701893    -0.09100
C1515       C  0.47223895  0.96550248  0.51655273     0.06500
C1516       C  0.48277129  0.94366359  0.50103352    -0.14100
S1517       S  0.46358688  0.93771496  0.37047088    -0.31100
H1518       H  0.45176147  0.98510744  0.41969617     0.10800
S1519       S  0.47380742  0.97273750  0.57457025    -0.28200
H1520       H  0.49201075  0.93272607  0.52401945     0.08000
H1521       H  0.50434809  0.81940186  0.47166884     0.26400
H1522       H  0.44936724  0.95683133  0.35776612     0.21200
H1523       H  0.44900589  0.98168150  0.57480016     0.26500
H1524       H  0.54162995  0.98385184  0.43134937     0.15400
C1525       C  0.55300760  0.29666053  0.47115037    -0.11900
C1526       C  0.52379781  0.28000881  0.44601462     0.14600
C1527       C  0.50700611  0.29696949  0.43465139     0.01500
C1528       C  0.51903040  0.32963701  0.44995423    -0.16300
C1529       C  0.54816641  0.34643366  0.47556920    -0.11100
C1530       C  0.56592685  0.32985165  0.48518642     0.08300
C1531       C  0.51019861  0.24403662  0.43633478     0.09300
S1532       S  0.47031485  0.27846022  0.40060533    -0.25400
H1533       H  0.50537175  0.34202342  0.44151729     0.19600
S1534       S  0.60542751  0.35034701  0.51392135    -0.31100
H1535       H  0.56556453  0.28328932  0.48011212     0.09900
C1536       C  0.53001271  0.23280970  0.41567039     0.03100
C1537       C  0.52120208  0.19929365  0.41986182    -0.13400
C1538       C  0.49221487  0.17656666  0.44262928    -0.09100
C1539       C  0.46966304  0.18674537  0.45666344     0.06500
C1540       C  0.47932163  0.22059782  0.45459094    -0.14100
S1541       S  0.56785689  0.26163306  0.38698448    -0.31100
H1542       H  0.53854335  0.19157797  0.40894800     0.10800
S1543       S  0.43064557  0.15888846  0.48308836    -0.28200
H1544       H  0.46370483  0.22902103  0.46993687     0.08000
H1545       H  0.61093545  0.32314567  0.51388661     0.26400
H1546       H  0.57425011  0.23725746  0.36919048     0.21200
H1547       H  0.42177123  0.13259479  0.45289889     0.26500
H1548       H  0.47814889  0.25699822  0.37721320     0.15400
C1549       C  0.74418683  0.16195991  0.10148650    -0.11900
C1550       C  0.75719207  0.14092689  0.09350134     0.14600
C1551       C  0.73619972  0.10950694  0.07294354     0.01500
C1552       C  0.70414979  0.10120317  0.05808707    -0.16300
C1553       C  0.69125123  0.12267102  0.06503696    -0.11100
C1554       C  0.71165608  0.15319802  0.08862996     0.08300
C1555       C  0.79211622  0.15232346  0.10897501     0.09300
S1556       S  0.74833634  0.07842238  0.06563103    -0.25400
H1557       H  0.68912711  0.07758798  0.04103402     0.19600
S1558       S  0.69729379  0.18176599  0.10374850    -0.31100
H1559       H  0.75988409  0.18561592  0.11809236     0.09900
C1560       C  0.81891299  0.15959421  0.08018810     0.03100
C1561       C  0.85097081  0.16959266  0.09696328    -0.13400
C1562       C  0.85706832  0.17210653  0.14214591    -0.09100
C1563       C  0.83052240  0.16649899  0.17061276     0.06500
C1564       C  0.79875762  0.15692949  0.15387748    -0.14100
S1565       S  0.81237914  0.15577881  0.02203068    -0.31100
H1566       H  0.87077369  0.17318034  0.07478139     0.10800
S1567       S  0.83523425  0.16976219  0.22901230    -0.28200
H1568       H  0.77867058  0.15213308  0.17631457     0.08000
H1569       H  0.72458396  0.20381595  0.12996354     0.26400
H1570       H  0.84258413  0.15725539  0.01086946     0.21200
H1571       H  0.86994788  0.19239560  0.22860490     0.26500
H1572       H  0.76985696  0.08829549  0.10168808     0.15400
C1573       C  0.47035296  0.21572277  0.96384065    -0.11900
C1574       C  0.49937898  0.21983655  0.94362280     0.14600
C1575       C  0.51749089  0.24711815  0.91538514     0.01500
C1576       C  0.51048219  0.27313531  0.91542432    -0.16300
C1577       C  0.48431019  0.27125785  0.94088449    -0.11100
C1578       C  0.46223706  0.24096149  0.96191286     0.08300
C1579       C  0.51257051  0.19832644  0.95781264     0.09300
S1580       S  0.55134573  0.25124281  0.88154922    -0.25400
H1581       H  0.52714446  0.29606292  0.89830399     0.19600
S1582       S  0.42575681  0.23561263  0.99025965    -0.31100
H1583       H  0.45547094  0.19388266  0.98375010     0.09900
C1584       C  0.54319363  0.21197142  0.98049056     0.03100
C1585       C  0.55426447  0.19067960  0.99476391    -0.13400
C1586       C  0.53491735  0.15583108  0.98849364    -0.09100
C1587       C  0.50323029  0.14212360  0.96813320     0.06500
C1588       C  0.49280748  0.16352455  0.95236528    -0.14100
S1589       S  0.56753262  0.25624604  0.99359175    -0.31100
H1590       H  0.57827687  0.20133166  0.01075472     0.10800
S1591       S  0.47408753  0.09772276  0.96291920    -0.28200
H1592       H  0.46869130  0.15292611  0.93655617     0.08000
H1593       H  0.42030809  0.20812104  0.01537595     0.26400
H1594       H  0.59518582  0.25606886  0.01165227     0.21200
H1595       H  0.48022450  0.09026354  0.00491002     0.26500
H1596       H  0.54072340  0.21687254  0.88033991     0.15400
C1597       C  0.48756335  0.95698858  0.92099442    -0.11900
C1598       C  0.46046553  0.94637498  0.95021612     0.14600
C1599       C  0.46799613  0.95485038  0.99481832     0.01500
C1600       C  0.50131417  0.97465463  0.00833696    -0.16300
C1601       C  0.52818688  0.98924370  0.97847171    -0.11100
C1602       C  0.52111393  0.97838279  0.93450675     0.08300
C1603       C  0.42487227  0.92499989  0.93436163     0.09300
S1604       S  0.43629983  0.94415903  0.03610971    -0.25400
H1605       H  0.50587234  0.98200550  0.04239807     0.19600
S1606       S  0.55435056  0.99153644  0.89527733    -0.31100
H1607       H  0.48232444  0.94894524  0.88727803     0.09900
C1608       C  0.41077855  0.93528251  0.90149602     0.03100
C1609       C  0.37722127  0.91370183  0.88795024    -0.13400
C1610       C  0.35675099  0.88237580  0.90761848    -0.09100
C1611       C  0.37040911  0.87353036  0.94282928     0.06500
C1612       C  0.40420832  0.89404317  0.95424477    -0.14100
S1613       S  0.43522907  0.97613430  0.87725836    -0.31100
H1614       H  0.36727390  0.92081242  0.86108510     0.10800
S1615       S  0.34482132  0.83661779  0.97520483    -0.28200
H1616       H  0.41463553  0.88616226  0.97965956     0.08000
H1617       H  0.53400781  0.98125088  0.85797060     0.26400
H1618       H  0.40989556  0.97392226  0.85017274     0.21200
H1619       H  0.37051873  0.83828918  0.00099272     0.26500
H1620       H  0.41394061  0.94758395  0.00907649     0.15400
C1621       C  0.56390064  0.07906659  0.21495959    -0.11900
C1622       C  0.53095471  0.06873604  0.22717146     0.14600
C1623       C  0.50737413  0.06352862  0.19465221     0.01500
C1624       C  0.51766218  0.07039018  0.15110029    -0.16300
C1625       C  0.55097736  0.08179821  0.13896408    -0.11100
C1626       C  0.57396603  0.08478370  0.17140489     0.08300
C1627       C  0.52317648  0.06767505  0.27424046     0.09300
S1628       S  0.46401543  0.04884440  0.20679947    -0.25400
H1629       H  0.49962758  0.06746866  0.12669800     0.19600
S1630       S  0.61635345  0.09514831  0.15982147    -0.31100
H1631       H  0.58209322  0.08308466  0.23974152     0.09900
C1632       C  0.52529494  0.04532815  0.30304862     0.03100
C1633       C  0.51917835  0.04682906  0.34777446    -0.13400
C1634       C  0.51122626  0.07043425  0.36421863    -0.09100
C1635       C  0.51028486  0.09344007  0.33503843     0.06500
C1636       C  0.51569183  0.09140529  0.29068600    -0.14100
S1637       S  0.53497151  0.01444647  0.28269260    -0.31100
H1638       H  0.52016524  0.02932538  0.36987844     0.10800
S1639       S  0.50471397  0.12764014  0.35222261    -0.28200
H1640       H  0.51514950  0.10930646  0.26879826     0.08000
H1641       H  0.60789348  0.07496787  0.12199664     0.26400
H1642       H  0.52946800  0.99726795  0.32203257     0.21200
H1643       H  0.52609904  0.13585708  0.38826270     0.26500
H1644       H  0.46231823  0.03082601  0.24417822     0.15400
C1645       C  0.51282526  0.06265680  0.70743141    -0.11900
C1646       C  0.54420783  0.08242207  0.72698041     0.14600
C1647       C  0.57178068  0.10475551  0.70083811     0.01500
C1648       C  0.56741804  0.10618071  0.65607960    -0.16300
C1649       C  0.53578881  0.08726226  0.63714914    -0.11100
C1650       C  0.50807636  0.06555455  0.66322018     0.08300
C1651       C  0.54783537  0.07805468  0.77403883     0.09300
S1652       S  0.61263389  0.13353043  0.72277510    -0.25400
H1653       H  0.58844399  0.12367242  0.63631604     0.19600
S1654       S  0.46576339  0.04177811  0.64292697    -0.31100
H1655       H  0.49168346  0.04511735  0.72695597     0.09900
C1656       C  0.52845064  0.08237794  0.80647825     0.03100
C1657       C  0.53391959  0.07894253  0.85050301    -0.13400
C1658       C  0.55941878  0.07296747  0.86283189    -0.09100
C1659       C  0.57863006  0.06841340  0.83024458     0.06500
C1660       C  0.57173317  0.06983014  0.78639275    -0.14100
S1661       S  0.49882644  0.09513919  0.79250839    -0.31100
H1662       H  0.51986815  0.08320165  0.87556836     0.10800
S1663       S  0.61283805  0.06192318  0.84356560    -0.28200
H1664       H  0.58602819  0.06592589  0.76134559     0.08000
H1665       H  0.47329479  0.04327858  0.59846197     0.26400
H1666       H  0.48562888  0.09281034  0.83461084     0.21200
H1667       H  0.61923466  0.05477340  0.80109854     0.26500
H1668       H  0.60098049  0.13838451  0.76309415     0.15400
C1669       C  0.74816490  0.32576441  0.95932883    -0.11900
C1670       C  0.73819954  0.29757682  0.98525499     0.14600
C1671       C  0.74748867  0.30212171  0.02973985     0.01500
C1672       C  0.76865933  0.33446274  0.04614453    -0.16300
C1673       C  0.77880343  0.36251145  0.01995071    -0.11100
C1674       C  0.76728289  0.35802845  0.97668815     0.08300
C1675       C  0.71863154  0.26379825  0.96521372     0.09300
S1676       S  0.73345495  0.26783097  0.06711981    -0.25400
H1677       H  0.77765415  0.33778575  0.07933271     0.19600
S1678       S  0.77836183  0.39263220  0.94125431    -0.31100
H1679       H  0.74113284  0.32260574  0.92528222     0.09900
C1680       C  0.68644864  0.25216944  0.94809066     0.03100
C1681       C  0.66636163  0.21812559  0.93769697    -0.13400
C1682       C  0.67694060  0.19522918  0.94678763    -0.09100
C1683       C  0.71084738  0.20778888  0.95712251     0.06500
C1684       C  0.73135833  0.24200719  0.96639673    -0.14100
S1685       S  0.66882231  0.27913911  0.94562241    -0.31100
H1686       H  0.64049373  0.20852846  0.92878966     0.10800
S1687       S  0.72801907  0.18102128  0.96468493    -0.28200
H1688       H  0.75666827  0.25128144  0.97766376     0.08000
H1689       H  0.76867024  0.40922355  0.97143941     0.26400
H1690       H  0.63877580  0.25609742  0.92477815     0.21200
H1691       H  0.71037820  0.15964780  0.92951536     0.26500
H1692       H  0.70218597  0.24733551  0.04730125     0.15400
loop_ 
_geom_bond_atom_site_label_1 
_geom_bond_atom_site_label_2 
_geom_bond_distance 
_geom_bond_site_symmetry_2 
_ccdc_geom_bond_type 
O1           C16   1.270       .  A
O1           Al9   1.943       .  S
C2           O12   1.274       .  A
C2            O3   1.258       .  A
C2         C1682   1.476       .  S
O3           Al5   1.856   1_556  S
O4            C6   1.265       .  A
O4           Al5   1.933       .  S
Al5          O13   1.929       .  S
Al5          O15   1.866       .  S
Al5          O14   1.754       .  S
C6           O19   1.252   1_554  A
C6         C1586   1.482   1_554  S
O7           C17   1.274       .  A
O7           Al9   1.964   1_556  S
O8           C21   1.277       .  A
O8          Al18   2.024       .  S
Al9          O22   1.860       .  S
Al9          O19   1.870   1_554  S
Al9          O14   1.757       .  S
O10          C17   1.256       .  A
O10         Al18   1.860       .  S
O11          C20   1.278       .  A
O11         Al18   1.944   1_554  S
O12         Al18   1.970       .  S
O13          C20   1.268       .  A
O14         Al18   1.790   1_554  S
O15          C16   1.257       .  A
C16        C1625   1.483       .  S
C17        C1658   1.475       .  S
C20        C1553   1.515       .  S
C21          O22   1.245   1_556  A
C21        C1601   1.512   1_545  S
O23          C38   1.278       .  A
O23         Al31   1.952       .  S
C24          O34   1.250       .  A
C24          O25   1.263       .  A
C24        C1481   1.480       .  S
O25         Al27   1.932       .  S
O26          C28   1.260       .  A
O26         Al27   1.872       .  S
Al27         O35   1.870       .  S
Al27         O37   1.915       .  S
Al27         O36   1.767       .  S
C28          O41   1.270       .  A
C28        C1538   1.469       .  S
O29          C39   1.258       .  A
O29         Al31   1.870       .  S
O30          C43   1.248       .  A
O30         Al40   1.858       .  S
Al31         O44   1.993       .  S
Al31         O41   1.949       .  S
Al31         O36   1.789       .  S
O32          C39   1.270       .  A
O32         Al40   1.949       .  S
O33          C42   1.268       .  A
O33         Al40   1.939       .  S
O34         Al40   1.865       .  S
O35          C42   1.257       .  A
O36         Al40   1.772       .  S
O37          C38   1.266       .  A
C38        C1457   1.508       .  S
C39        C1634   1.484       .  S
C42        C1649   1.462       .  S
C43          O44   1.274       .  A
C43        C1514   1.498   1_545  S
O45          C60   1.269       .  A
O45         Al53   1.944   1_554  S
C46          O56   1.269       .  A
C46          O47   1.257       .  A
C46        C1577   1.471       .  S
O47         Al49   1.875   1_556  S
O48          C50   1.263   1_554  A
O48         Al49   1.937       .  S
Al49         O57   1.931       .  S
Al49         O59   1.875       .  S
Al49         O58   1.765   1_554  S
C50          O63   1.253       .  A
C50        C1361   1.493       .  S
O51          C61   1.271       .  A
O51         Al53   1.948       .  S
O52          C65   1.273       .  A
O52         Al62   1.990       .  S
Al53         O66   1.866   1_556  S
Al53         O63   1.872       .  S
Al53         O58   1.770       .  S
O54          C61   1.261       .  A
O54         Al62   1.880       .  S
O55          C64   1.278       .  A
O55         Al62   1.948   1_554  S
O56         Al62   1.955       .  S
O57          C64   1.270       .  A
O58         Al62   1.793       .  S
O59          C60   1.258       .  A
C60        C1409   1.481       .  S
C61        C1442   1.478       .  S
C64        C1337   1.509       .  S
C65          O66   1.249   1_556  A
C65        C1385   1.497       .  S
O67          C82   1.279       .  A
O67         Al75   1.952       .  S
C68          O78   1.253       .  A
C68          O69   1.258       .  A
C68        C1529   1.484       .  S
O69         Al71   1.914       .  S
O70          C72   1.258       .  A
O70         Al71   1.877       .  S
Al71         O79   1.873       .  S
Al71         O81   1.901       .  S
Al71         O80   1.765       .  S
C72          O85   1.265       .  A
C72        C1313   1.459       .  S
O73          C83   1.260       .  A
O73         Al75   1.883       .  S
O74          C87   1.250       .  A
O74         Al84   1.862       .  S
Al75         O88   1.981       .  S
Al75         O85   1.934       .  S
Al75         O80   1.794       .  S
O76          C83   1.272       .  A
O76         Al84   1.953       .  S
O77          C86   1.270       .  A
O77         Al84   1.948       .  S
O78         Al84   1.876       .  S
O79          C86   1.258       .  A
O80         Al84   1.770       .  S
O81          C82   1.265       .  A
C82        C1265   1.512       .  S
C83        C1418   1.491       .  S
C86        C1433   1.475       .  S
C87          O88   1.271       .  A
C87        C1298   1.500       .  S
O89         C104   1.279       .  A
O89         Al97   1.953       .  S
C90         O100   1.252       .  A
C90          O91   1.261       .  A
C90        C1322   1.471       .  S
O91         Al93   1.924       .  S
O92          C94   1.258       .  A
O92         Al93   1.875       .  S
Al93        O101   1.862       .  S
Al93        O103   1.919       .  S
Al93        O102   1.765       .  S
C94         O107   1.269       .  A
C94        C1490   1.466       .  S
O95         C105   1.262       .  A
O95         Al97   1.874       .  S
O96         C109   1.250       .  A
O96        Al106   1.868       .  S
Al97        O110   1.988       .  S
Al97        O107   1.947       .  S
Al97        O102   1.790       .  S
O98         C105   1.271       .  A
O98        Al106   1.956       .  S
O99         C108   1.270       .  A
O99        Al106   1.947       .  S
O100       Al106   1.871       .  S
O101        C108   1.257       .  A
O102       Al106   1.773       .  S
O103        C104   1.267       .  A
C104       C1178   1.518       .  S
C105       C1250   1.489       .  S
C108       C1217   1.478       .  S
C109        O110   1.273       .  A
C109       C1193   1.503       .  S
O111        C126   1.262       .  A
O111       Al119   1.908       .  S
C112        O122   1.266       .  A
C112        O113   1.258   1_556  A
C112       C1370   1.490       .  S
O113       Al115   1.876       .  S
O114        C116   1.256       .  A
O114       Al115   1.899       .  S
Al115       O123   1.906       .  S
Al115       O125   1.913       .  S
Al115       O124   1.782       .  S
C116        O129   1.255       .  A
C116       C1673   1.465       .  S
O117        C127   1.264       .  A
O117       Al119   1.914   1_556  S
O118        C131   1.281       .  A
O118       Al128   1.974       .  S
Al119       O132   1.863       .  S
Al119       O129   1.901       .  S
Al119       O124   1.784       .  S
O120        C127   1.262       .  A
O120       Al128   1.908       .  S
O121        C130   1.273       .  A
O121       Al128   1.963   1_554  S
O122       Al128   1.940       .  S
O123        C130   1.264       .  A
O124       Al128   1.790   1_554  S
O125        C126   1.262       .  A
C126       C1241   1.471       .  S
C127       C1226   1.468       .  S
C130       C1130   1.503       .  S
C131        O132   1.254   1_556  A
C131       C1145   1.495       .  S
O133        C148   1.267       .  A
O133       Al141   1.938       .  S
C134        O144   1.270       .  A
C134        O135   1.260       .  A
C134       C1097   1.480       .  S
O135       Al137   1.874       .  S
O136        C138   1.264       .  A
O136       Al137   1.933       .  S
Al137       O145   1.927       .  S
Al137       O147   1.873       .  S
Al137       O146   1.761       .  S
C138        O151   1.252       .  A
C138       C1010   1.476       .  S
O139        C149   1.270       .  A
O139       Al141   1.941       .  S
O140        C153   1.273       .  A
O140       Al150   1.990       .  S
Al141       O154   1.873       .  S
Al141       O151   1.872       .  S
Al141       O146   1.768       .  S
O142        C149   1.262       .  A
O142       Al150   1.877       .  S
O143        C152   1.278       .  A
O143       Al150   1.944       .  S
O144       Al150   1.953       .  S
O145        C152   1.268       .  A
O146       Al150   1.791       .  S
O147        C148   1.260       .  A
C148       C1058   1.492       .  S
C149       C1073   1.469       .  S
C152       C1505   1.505       .  S
C153        O154   1.250       .  A
C153       C1025   1.500       .  S
O155        C170   1.276       .  A
O155       Al163   1.948       .  S
C156        O166   1.252       .  A
C156        O157   1.263       .  A
C156        C938   1.478       .  S
O157       Al159   1.936       .  S
O158        C160   1.261       .  A
O158       Al159   1.874       .  S
Al159       O167   1.875       .  S
Al159       O169   1.913       .  S
Al159       O168   1.764       .  S
C160        O173   1.269       .  A
C160        C977   1.467       .  S
O161        C171   1.259       .  A
O161       Al163   1.867       .  S
O162        C175   1.251       .  A
O162       Al172   1.865       .  S
Al163       O176   1.988       .  S
Al163       O173   1.943       .  S
Al163       O168   1.788       .  S
O164        C171   1.269       .  A
O164       Al172   1.945       .  S
O165        C174   1.268       .  A
O165       Al172   1.939       .  S
O166       Al172   1.870       .  S
O167        C174   1.259       .  A
O168       Al172   1.770       .  S
O169        C170   1.266       .  A
C170       C1394   1.511       .  S
C171       C1049   1.486       .  S
C174       C1082   1.466       .  S
C175        O176   1.273       .  A
C175        C962   1.504       .  S
O177        C192   1.277       .  A
O177       Al185   1.945       .  S
C178        O188   1.254       .  A
C178        O179   1.262       .  A
C178        C986   1.488       .  S
O179       Al181   1.929       .  S
O180        C182   1.255       .  A
O180       Al181   1.855       .  S
Al181       O189   1.862       .  S
Al181       O191   1.920       .  S
Al181       O190   1.760       .  S
C182        O195   1.273       .  A
C182        C914   1.470       .  S
O183        C193   1.258       .  A
O183       Al185   1.868       .  S
O184        C197   1.252       .  A
O184       Al194   1.869       .  S
Al185       O198   2.007       .  S
Al185       O195   1.965       .  S
Al185       O190   1.784       .  S
O186        C193   1.271       .  A
O186       Al194   1.954       .  S
O187        C196   1.270       .  A
O187       Al194   1.949       .  S
O188       Al194   1.870       .  S
O189        C196   1.256       .  A
O190       Al194   1.768       .  S
O191        C192   1.267       .  A
C192       C1154   1.507       .  S
C193        C881   1.484       .  S
C196        C857   1.466       .  S
C197        O198   1.278       .  A
C197        C833   1.512       .  S
O199        C214   1.264       .  A
O199       Al207   1.904       .  S
C200        O210   1.260       .  A
C200        O201   1.256       .  A
C200       C1001   1.464       .  S
O201       Al203   1.876       .  S
O202        C204   1.255       .  A
O202       Al203   1.906       .  S
Al203       O211   1.875       .  S
Al203       O213   1.929       .  S
Al203       O212   1.775       .  S
C204        O217   1.253       .  A
C204        C794   1.473       .  S
O205        C215   1.270       .  A
O205       Al207   1.914       .  S
O206        C219   1.274       .  A
O206       Al216   1.958       .  S
Al207       O220   1.845       .  S
Al207       O217   1.899       .  S
Al207       O212   1.788       .  S
O208        C215   1.266       .  A
O208       Al216   1.897       .  S
O209        C218   1.269       .  A
O209       Al216   1.951       .  S
O210       Al216   1.913       .  S
O211        C218   1.258       .  A
O212       Al216   1.795       .  S
O213        C214   1.268       .  A
C214        C890   1.487       .  S
C215        C866   1.479       .  S
C218       C1289   1.500       .  S
C219        O220   1.248       .  A
C219        C818   1.478       .  S
O221        C236   1.266       .  A
O221       Al229   1.928       .  S
C222        O232   1.275       .  A
C222        O223   1.257       .  A
C222        C785   1.483       .  S
O223       Al225   1.858       .  S
O224        C226   1.266       .  A
O224       Al225   1.939       .  S
Al225       O233   1.917       .  S
Al225       O235   1.873       .  S
Al225       O234   1.763       .  S
C226        O239   1.251       .  A
C226       C1106   1.484       .  S
O227        C237   1.267       .  A
O227       Al229   1.934       .  S
O228        C241   1.280       .  A
O228       Al238   2.016       .  S
Al229       O242   1.864       .  S
Al229       O239   1.864       .  S
Al229       O234   1.773       .  S
O230        C237   1.254       .  A
O230       Al238   1.855       .  S
O231        C240   1.277       .  A
O231       Al238   1.953       .  S
O232       Al238   1.971       .  S
O233        C240   1.264       .  A
O234       Al238   1.787       .  S
O235        C236   1.259       .  A
C236        C746   1.469       .  S
C237        C770   1.472       .  S
C240       C1202   1.511       .  S
C241        O242   1.250       .  A
C241        C713   1.509       .  S
O243        C258   1.282       .  A
O243       Al251   1.962       .  S
C244        O254   1.252       .  A
C244        O245   1.262       .  A
C244        C905   1.479       .  S
O245       Al247   1.921       .  S
O246        C248   1.256       .  A
O246       Al247   1.865       .  S
Al247       O255   1.858       .  S
Al247       O257   1.909       .  S
Al247       O256   1.756       .  S
C248        O261   1.274       .  A
C248        C929   1.472       .  S
O249        C259   1.261       .  A
O249       Al251   1.871       .  S
O250        C263   1.251       .  A
O250       Al260   1.870       .  S
Al251       O264   2.016       .  S
Al251       O261   1.969       .  S
Al251       O256   1.789       .  S
O252        C259   1.270       .  A
O252       Al260   1.945       .  S
O253        C262   1.267       .  A
O253       Al260   1.939       .  S
O254       Al260   1.868       .  S
O255        C262   1.257       .  A
O256       Al260   1.769       .  S
O257        C258   1.265       .  A
C258       C1610   1.508       .  S
C259        C737   1.471       .  S
C262        C761   1.482       .  S
C263        O264   1.277       .  A
C263        C689   1.522       .  S
O265        C280   1.264       .  A
O265       Al273   1.909       .  S
C266        O276   1.263       .  A
C266        O267   1.258       .  A
C266        C674   1.463       .  S
O267       Al269   1.876       .  S
O268        C270   1.255       .  A
O268       Al269   1.905       .  S
Al269       O277   1.899       .  S
Al269       O279   1.923       .  S
Al269       O278   1.785       .  S
C270        O283   1.252       .  A
C270        C593   1.472       .  S
O271        C281   1.265       .  A
O271       Al273   1.907       .  S
O272        C285   1.278       .  A
O272       Al282   1.974       .  S
Al273       O286   1.865       .  S
Al273       O283   1.888       .  S
Al273       O278   1.783       .  S
O274        C281   1.265       .  A
O274       Al282   1.920       .  S
O275        C284   1.270       .  A
O275       Al282   1.958       .  S
O276       Al282   1.916       .  S
O277        C284   1.263       .  A
O278       Al282   1.797       .  S
O279        C280   1.266       .  A
C280        C617   1.478       .  S
C281        C650   1.483       .  S
C284        C842   1.514       .  S
C285        O286   1.253       .  A
C285       C1466   1.492       .  S
O287        C302   1.282       .  A
O287       Al295   1.966   1_565  S
C288        O298   1.253       .  A
C288        O289   1.262       .  A
C288        C545   1.492       .  S
O289       Al291   1.934       .  S
O290        C292   1.259       .  A
O290       Al291   1.870   1_565  S
Al291       O299   1.863       .  S
Al291       O301   1.925   1_545  S
Al291       O300   1.761       .  S
C292        O305   1.272       .  A
C292        C578   1.481       .  S
O293        C303   1.262       .  A
O293       Al295   1.883       .  S
O294        C307   1.247       .  A
O294       Al304   1.863       .  S
Al295       O308   2.011       .  S
Al295       O305   1.966   1_545  S
Al295       O300   1.789       .  S
O296        C303   1.273       .  A
O296       Al304   1.960       .  S
O297        C306   1.271       .  A
O297       Al304   1.952       .  S
O298       Al304   1.875       .  S
O299        C306   1.257       .  A
O300       Al304   1.769       .  S
O301        C302   1.269       .  A
C302        C722   1.522       .  S
C303        C626   1.488       .  S
C306        C641   1.478       .  S
C307        O308   1.277       .  A
C307       C1346   1.507       .  S
O309        C324   1.266       .  A
O309       Al317   1.923       .  S
C310        O320   1.271       .  A
C310        O311   1.259       .  A
C310        C602   1.468       .  S
O311       Al313   1.868       .  S
O312        C314   1.266       .  A
O312       Al313   1.942       .  S
Al313       O321   1.927       .  S
Al313       O323   1.876       .  S
Al313       O322   1.762       .  S
C314        O327   1.255       .  A
C314        C473   1.483       .  S
O315        C325   1.267       .  A
O315       Al317   1.941       .  S
O316        C329   1.275       .  A
O316       Al326   1.998       .  S
Al317       O330   1.867       .  S
Al317       O327   1.873       .  S
Al317       O322   1.771       .  S
O318        C325   1.261       .  A
O318       Al326   1.875       .  S
O319        C328   1.277       .  A
O319       Al326   1.950       .  S
O320       Al326   1.951       .  S
O321        C328   1.269       .  A
O322       Al326   1.789       .  S
O323        C324   1.259       .  A
C324        C506   1.473       .  S
C325        C521   1.480       .  S
C328        C698   1.519   1_655  S
C329        O330   1.249       .  A
C329       C1274   1.501       .  S
O331        C346   1.278       .  A
O331       Al339   1.947       .  S
C332        O342   1.253       .  A
C332        O333   1.263       .  A
C332        C569   1.493       .  S
O333       Al335   1.929       .  S
O334        C336   1.254       .  A
O334       Al335   1.863       .  S
Al335       O343   1.869       .  S
Al335       O345   1.924       .  S
Al335       O344   1.766       .  S
C336        O349   1.269       .  A
C336        C449   1.474       .  S
O337        C347   1.260       .  A
O337       Al339   1.875       .  S
O338        C351   1.252       .  A
O338       Al348   1.880       .  S
Al339       O352   1.987       .  S
Al339       O349   1.949       .  S
Al339       O344   1.790       .  S
O340        C347   1.270       .  A
O340       Al348   1.939       .  S
O341        C350   1.266       .  A
O341       Al348   1.930       .  S
O342       Al348   1.871       .  S
O343        C350   1.257       .  A
O344       Al348   1.776       .  S
O345        C346   1.269       .  A
C346       C1034   1.507       .  S
C347        C497   1.482       .  S
C350        C530   1.470       .  S
C351        O352   1.273       .  A
C351       C1121   1.506       .  S
O353        C368   1.267       .  A
O353       Al361   1.934       .  S
C354        O364   1.267       .  A
C354        O355   1.256       .  A
C354        C482   1.477       .  S
O355       Al357   1.884   1_565  S
O356        C358   1.259       .  A
O356       Al357   1.919       .  S
Al357       O365   1.913   1_545  S
Al357       O367   1.861       .  S
Al357       O366   1.766       .  S
C358        O371   1.252       .  A
C358        C665   1.490       .  S
O359        C369   1.270       .  A
O359       Al361   1.932       .  S
O360        C373   1.271       .  A
O360       Al370   1.987       .  S
Al361       O374   1.884       .  S
Al361       O371   1.867       .  S
Al361       O366   1.776       .  S
O362        C369   1.264       .  A
O362       Al370   1.879       .  S
O363        C372   1.281       .  A
O363       Al370   1.949   1_565  S
O364       Al370   1.952   1_565  S
O365        C372   1.269       .  A
O366       Al370   1.794       .  S
O367        C368   1.256       .  A
C368        C410   1.484       .  S
C369        C425   1.464       .  S
C372        C953   1.510       .  S
C373        O374   1.252       .  A
C373       C1169   1.503       .  S
O375        C390   1.278       .  A
O375       Al383   1.957       .  S
C376        O386   1.252       .  A
C376        O377   1.260       .  A
C376        C458   1.466       .  S
O377       Al379   1.919       .  S
O378        C380   1.260       .  A
O378       Al379   1.876       .  S
Al379       O387   1.868       .  S
Al379       O389   1.892       .  S
Al379       O388   1.762       .  S
C380        O393   1.270       .  A
C380        C554   1.469   1_655  S
O381        C391   1.260       .  A
O381       Al383   1.866       .  S
O382        C395   1.251       .  A
O382       Al392   1.870       .  S
Al383       O396   1.988       .  S
Al383       O393   1.953       .  S
Al383       O388   1.785       .  S
O384        C391   1.267       .  A
O384       Al392   1.937       .  S
O385        C394   1.268       .  A
O385       Al392   1.934       .  S
O386       Al392   1.873       .  S
O387        C394   1.257       .  A
O388       Al392   1.772       .  S
O389        C390   1.263       .  A
C390        C809   1.505   1_655  S
C391        C401   1.486       .  S
C394        C434   1.458       .  S
C395        O396   1.274       .  A
C395       C1562   1.499       .  S
C397        C398   1.402       .  A
C397        C402   1.405   1_556  A
C397        H407   1.083       .  S
C398        C403   1.470       .  S
C398        C399   1.404       .  A
C399        C400   1.389       .  A
C399        S404   1.805       .  S
C400        C401   1.410   1_556  A
C400        H405   1.083   1_556  S
C401        C402   1.420       .  A
C402        S406   1.809       .  S
C403        C408   1.404       .  A
C403        C412   1.400       .  A
S404        H420   1.405       .  S
S406        H417   1.406       .  S
C408        C409   1.397       .  A
C408        S413   1.808       .  S
C409        C410   1.411       .  A
C409        H414   1.082       .  S
C410        C411   1.416       .  A
C411        C412   1.398       .  A
C411        S415   1.798       .  S
C412        H416   1.084       .  S
S413        H418   1.407       .  S
S415        H419   1.405       .  S
C421        C422   1.401       .  A
C421        C426   1.396       .  A
C421        H431   1.083       .  S
C422        C427   1.475       .  S
C422        C423   1.414       .  A
C423        C424   1.397       .  A
C423        S428   1.804       .  S
C424        C425   1.401       .  A
C424        H429   1.084       .  S
C425        C426   1.410       .  A
C426        S430   1.808       .  S
C427        C432   1.412       .  A
C427        C436   1.402       .  A
S428        H444   1.406       .  S
S430        H441   1.406       .  S
C432        C433   1.398       .  A
C432        S437   1.808       .  S
C433        C434   1.398       .  A
C433        H438   1.083       .  S
C434        C435   1.411       .  A
C435        C436   1.397       .  A
C435        S439   1.806       .  S
C436        H440   1.084       .  S
S437        H442   1.407       .  S
S439        H443   1.406       .  S
C445        C446   1.397       .  A
C445        C450   1.393       .  A
C445        H455   1.085       .  S
C446        C451   1.470       .  S
C446        C447   1.410       .  A
C447        C448   1.399       .  A
C447        S452   1.804       .  S
C448        C449   1.406       .  A
C448        H453   1.085       .  S
C449        C450   1.420       .  A
C450        S454   1.808       .  S
C451        C456   1.409       .  A
C451        C460   1.399       .  A
S452        H468   1.404       .  S
S454        H465   1.398       .  S
C456        C457   1.399   1_565  A
C456        S461   1.807       .  S
C457        C458   1.401       .  A
C457        H462   1.083       .  S
C458        C459   1.414       .  A
C459        C460   1.396   1_545  A
C459        S463   1.805       .  S
C460        H464   1.084       .  S
S461        H466   1.407       .  S
S463        H467   1.407       .  S
C469        C470   1.404       .  A
C469        C474   1.402       .  A
C469        H479   1.084       .  S
C470        C475   1.479       .  S
C470        C471   1.408       .  A
C471        C472   1.398       .  A
C471        S476   1.803       .  S
C472        C473   1.408       .  A
C472        H477   1.084       .  S
C473        C474   1.414       .  A
C474        S478   1.802       .  S
C475        C480   1.408       .  A
C475        C484   1.401       .  A
S476        H492   1.405       .  S
S478        H489   1.408       .  S
C480        C481   1.404       .  A
C480        S485   1.806       .  S
C481        C482   1.407       .  A
C481        H486   1.083       .  S
C482        C483   1.413       .  A
C483        C484   1.398       .  A
C483        S487   1.804       .  S
C484        H488   1.084       .  S
S485        H490   1.407       .  S
S487        H491   1.407       .  S
C493        C494   1.399       .  A
C493        C498   1.391   1_556  A
C493        H503   1.085       .  S
C494        C499   1.476       .  S
C494        C495   1.411       .  A
C495        C496   1.400   1_556  A
C495        S500   1.804       .  S
C496        C497   1.407       .  A
C496        H501   1.082       .  S
C497        C498   1.417       .  A
C498        S502   1.801       .  S
C499        C504   1.411       .  A
C499        C508   1.400       .  A
S500        H516   1.406       .  S
S502        H513   1.401       .  S
C504        C505   1.399       .  A
C504        S509   1.808       .  S
C505        C506   1.403       .  A
C505        H510   1.083       .  S
C506        C507   1.415       .  A
C507        C508   1.396       .  A
C507        S511   1.805       .  S
C508        H512   1.084       .  S
S509        H514   1.407       .  S
S511        H515   1.408       .  S
C517        C518   1.402       .  A
C517        C522   1.402       .  A
C517        H527   1.084       .  S
C518        C523   1.472       .  S
C518        C519   1.408       .  A
C519        C520   1.392       .  A
C519        S524   1.805       .  S
C520        C521   1.406       .  A
C520        H525   1.084       .  S
C521        C522   1.415       .  A
C522        S526   1.798       .  S
C523        C528   1.408       .  A
C523        C532   1.397       .  A
S524        H540   1.404       .  S
S526        H537   1.408       .  S
C528        C529   1.406       .  A
C528        S533   1.805       .  S
C529        C530   1.405       .  A
C529        H534   1.083       .  S
C530        C531   1.413       .  A
C531        C532   1.391       .  A
C531        S535   1.803       .  S
C532        H536   1.084       .  S
S533        H538   1.407       .  S
S535        H539   1.405       .  S
C541        C542   1.403       .  A
C541        C546   1.398       .  A
C541        H551   1.084       .  S
C542        C547   1.481       .  S
C542        C543   1.408       .  A
C543        C544   1.399       .  A
C543        S548   1.804       .  S
C544        C545   1.413       .  A
C544        H549   1.084       .  S
C545        C546   1.418       .  A
C546        S550   1.801       .  S
C547        C552   1.409       .  A
C547        C556   1.403       .  A
S548        H564   1.406       .  S
S550        H561   1.408       .  S
C552        C553   1.401       .  A
C552        S557   1.806       .  S
C553        C554   1.404       .  A
C553        H558   1.083   1_455  S
C554        C555   1.411       .  A
C555        C556   1.398       .  A
C555        S559   1.801       .  S
C556        H560   1.084       .  S
S557        H562   1.407   1_455  S
S559        H563   1.405       .  S
C565        C566   1.403       .  A
C565        C570   1.403   1_455  A
C565        H575   1.083       .  S
C566        C571   1.479       .  S
C566        C567   1.406   1_455  A
C567        C568   1.399       .  A
C567        S572   1.805   1_655  S
C568        C569   1.413       .  A
C568        H573   1.083       .  S
C569        C570   1.418       .  A
C570        S574   1.808       .  S
C571        C576   1.407       .  A
C571        C580   1.402       .  A
S572        H588   1.405       .  S
S574        H585   1.406       .  S
C576        C577   1.399       .  A
C576        S581   1.808       .  S
C577        C578   1.407       .  A
C577        H582   1.083       .  S
C578        C579   1.416       .  A
C579        C580   1.402       .  A
C579        S583   1.800       .  S
C580        H584   1.084       .  S
S581        H586   1.407       .  S
S583        H587   1.407       .  S
C589        C590   1.405       .  A
C589        C594   1.398       .  A
C589        H599   1.084       .  S
C590        C595   1.478       .  S
C590        C591   1.410       .  A
C591        C592   1.399   1_565  A
C591        S596   1.804       .  S
C592        C593   1.406       .  A
C592        H597   1.084       .  S
C593        C594   1.408   1_545  A
C594        S598   1.799   1_565  S
C595        C600   1.413       .  A
C595        C604   1.401       .  A
S596        H612   1.406       .  S
S598        H609   1.406       .  S
C600        C601   1.403       .  A
C600        S605   1.806       .  S
C601        C602   1.402   1_455  A
C601        H606   1.083       .  S
C602        C603   1.413       .  A
C603        C604   1.396   1_655  A
C603        S607   1.806       .  S
C604        H608   1.084       .  S
S605        H610   1.407       .  S
S607        H611   1.408       .  S
C613        C614   1.405       .  A
C613        C618   1.403       .  A
C613        H623   1.084       .  S
C614        C619   1.487       .  S
C614        C615   1.413       .  A
C615        C616   1.403       .  A
C615        S620   1.804       .  S
C616        C617   1.403       .  A
C616        H621   1.082       .  S
C617        C618   1.413       .  A
C618        S622   1.804       .  S
C619        C624   1.412       .  A
C619        C628   1.400       .  A
S620        H636   1.406       .  S
S622        H633   1.406       .  S
C624        C625   1.408   1_556  A
C624        S629   1.806       .  S
C625        C626   1.405       .  A
C625        H630   1.083       .  S
C626        C627   1.419   1_554  A
C627        C628   1.400       .  A
C627        S631   1.804   1_556  S
C628        H632   1.084       .  S
S629        H634   1.407       .  S
S631        H635   1.406       .  S
C637        C638   1.399       .  A
C637        C642   1.396       .  A
C637        H647   1.084       .  S
C638        C643   1.481       .  S
C638        C639   1.415       .  A
C639        C640   1.404       .  A
C639        S644   1.803       .  S
C640        C641   1.402       .  A
C640        H645   1.084       .  S
C641        C642   1.417       .  A
C642        S646   1.806       .  S
C643        C648   1.410       .  A
C643        C652   1.399       .  A
S644        H660   1.406       .  S
S646        H657   1.408       .  S
C648        C649   1.403       .  A
C648        S653   1.807       .  S
C649        C650   1.405       .  A
C649        H654   1.082       .  S
C650        C651   1.417       .  A
C651        C652   1.402       .  A
C651        S655   1.807       .  S
C652        H656   1.083       .  S
S653        H658   1.407       .  S
S655        H659   1.406       .  S
C661        C662   1.402       .  A
C661        C666   1.402   1_455  A
C661        H671   1.083       .  S
C662        C667   1.477       .  S
C662        C663   1.405       .  A
C663        C664   1.397   1_455  A
C663        S668   1.804       .  S
C664        C665   1.413       .  A
C664        H669   1.083       .  S
C665        C666   1.419       .  A
C666        S670   1.809       .  S
C667        C672   1.410       .  A
C667        C676   1.403       .  A
S668        H684   1.406       .  S
S670        H681   1.407       .  S
C672        C673   1.399       .  A
C672        S677   1.809       .  S
C673        C674   1.403       .  A
C673        H678   1.084       .  S
C674        C675   1.409       .  A
C675        C676   1.400       .  A
C675        S679   1.803       .  S
C676        H680   1.084       .  S
S677        H682   1.407       .  S
S679        H683   1.406       .  S
C685        C686   1.411       .  A
C685        C690   1.419       .  A
C685        H695   1.083       .  S
C686        C691   1.511       .  S
C686        C687   1.408       .  A
C687        C688   1.409       .  A
C687        S692   1.807       .  S
C688        C689   1.416       .  A
C688        H693   1.081       .  S
C689        C690   1.422       .  A
C690        S694   1.799       .  S
C691        C696   1.407       .  A
C691        C700   1.412       .  A
S692        H708   1.407       .  S
S694        H705   1.407       .  S
C696        C697   1.409       .  A
C696        S701   1.807       .  S
C697        C698   1.416       .  A
C697        H702   1.081       .  S
C698        C699   1.420       .  A
C699        C700   1.419       .  A
C699        S703   1.799       .  S
C700        H704   1.083       .  S
S701        H706   1.407       .  S
S703        H707   1.407   1_455  S
C709        C710   1.407       .  A
C709        C714   1.410       .  A
C709        H719   1.084       .  S
C710        C715   1.519       .  S
C710        C711   1.420       .  A
C711        C712   1.417       .  A
C711        S716   1.801       .  S
C712        C713   1.410       .  A
C712        H717   1.083       .  S
C713        C714   1.421       .  A
C714        S718   1.804       .  S
C715        C720   1.412       .  A
C715        C724   1.413       .  A
S716        H732   1.406       .  S
S718        H729   1.408       .  S
C720        C721   1.411       .  A
C720        S725   1.808       .  S
C721        C722   1.416       .  A
C721        H726   1.082       .  S
C722        C723   1.420       .  A
C723        C724   1.419       .  A
C723        S727   1.797       .  S
C724        H728   1.083       .  S
S725        H730   1.406       .  S
S727        H731   1.407       .  S
C733        C734   1.400       .  A
C733        C738   1.391       .  A
C733        H743   1.084       .  S
C734        C739   1.477       .  S
C734        C735   1.410       .  A
C735        C736   1.403       .  A
C735        S740   1.806       .  S
C736        C737   1.405       .  A
C736        H741   1.081       .  S
C737        C738   1.413       .  A
C738        S742   1.804       .  S
C739        C744   1.412       .  A
C739        C748   1.400       .  A
S740        H756   1.407       .  S
S742        H753   1.406       .  S
C744        C745   1.401       .  A
C744        S749   1.808       .  S
C745        C746   1.401       .  A
C745        H750   1.083       .  S
C746        C747   1.413       .  A
C747        C748   1.394       .  A
C747        S751   1.805       .  S
C748        H752   1.084       .  S
S749        H754   1.407       .  S
S751        H755   1.408       .  S
C757        C758   1.401       .  A
C757        C762   1.401       .  A
C757        H767   1.084       .  S
C758        C763   1.465       .  S
C758        C759   1.405       .  A
C759        C760   1.387       .  A
C759        S764   1.807       .  S
C760        C761   1.409   1_554  A
C760        H765   1.083       .  S
C761        C762   1.418   1_556  A
C762        S766   1.801   1_554  S
C763        C768   1.405       .  A
C763        C772   1.396       .  A
S764        H780   1.405       .  S
S766        H777   1.407       .  S
C768        C769   1.400       .  A
C768        S773   1.805       .  S
C769        C770   1.406       .  A
C769        H774   1.082       .  S
C770        C771   1.418       .  A
C771        C772   1.390       .  A
C771        S775   1.806       .  S
C772        H776   1.085       .  S
S773        H778   1.407       .  S
S775        H779   1.407       .  S
C781        C782   1.400       .  A
C781        C786   1.397       .  A
C781        H791   1.082       .  S
C782        C787   1.488       .  S
C782        C783   1.417       .  A
C783        C784   1.404       .  A
C783        S788   1.803       .  S
C784        C785   1.403       .  A
C784        H789   1.084       .  S
C785        C786   1.416       .  A
C786        S790   1.809       .  S
C787        C792   1.414       .  A
C787        C796   1.405       .  A
S788        H804   1.407       .  S
S790        H801   1.405       .  S
C792        C793   1.405       .  A
C792        S797   1.808       .  S
C793        C794   1.403       .  A
C793        H798   1.081       .  S
C794        C795   1.410       .  A
C795        C796   1.397       .  A
C795        S799   1.804       .  S
C796        H800   1.084       .  S
S797        H802   1.406       .  S
S799        H803   1.407       .  S
C805        C806   1.414       .  A
C805        C810   1.415       .  A
C805        H815   1.083       .  S
C806        C811   1.507       .  S
C806        C807   1.412       .  A
C807        C808   1.399       .  A
C807        S812   1.805       .  S
C808        C809   1.412       .  A
C808        H813   1.084       .  S
C809        C810   1.416       .  A
C810        S814   1.798       .  S
C811        C816   1.416       .  A
C811        C820   1.407       .  A
S812        H828   1.407       .  S
S814        H825   1.407       .  S
C816        C817   1.414       .  A
C816        S821   1.806       .  S
C817        C818   1.407       .  A
C817        H822   1.083       .  S
C818        C819   1.413       .  A
C819        C820   1.404       .  A
C819        S823   1.803       .  S
C820        H824   1.083       .  S
S821        H826   1.406       .  S
S823        H827   1.408       .  S
C829        C830   1.410       .  A
C829        C834   1.421       .  A
C829        H839   1.082       .  S
C830        C835   1.509       .  S
C830        C831   1.414       .  A
C831        C832   1.405       .  A
C831        S836   1.805       .  S
C832        C833   1.412       .  A
C832        H837   1.084       .  S
C833        C834   1.420       .  A
C834        S838   1.805       .  S
C835        C840   1.410       .  A
C835        C844   1.409       .  A
S836        H852   1.405       .  S
S838        H849   1.407       .  S
C840        C841   1.411       .  A
C840        S845   1.807       .  S
C841        C842   1.414       .  A
C841        H846   1.082       .  S
C842        C843   1.420       .  A
C843        C844   1.416       .  A
C843        S847   1.801       .  S
C844        H848   1.083       .  S
S845        H850   1.406       .  S
S847        H851   1.407       .  S
C853        C854   1.404       .  A
C853        C858   1.399   1_554  A
C853        H863   1.084       .  S
C854        C859   1.473       .  S
C854        C855   1.408       .  A
C855        C856   1.396       .  A
C855        S860   1.804       .  S
C856        C857   1.404   1_554  A
C856        H861   1.084   1_554  S
C857        C858   1.410       .  A
C858        S862   1.803       .  S
C859        C864   1.403       .  A
C859        C868   1.404       .  A
S860        H876   1.406       .  S
S862        H873   1.405       .  S
C864        C865   1.395       .  A
C864        S869   1.807       .  S
C865        C866   1.409       .  A
C865        H870   1.082       .  S
C866        C867   1.414       .  A
C867        C868   1.401       .  A
C867        S871   1.799       .  S
C868        H872   1.084       .  S
S869        H874   1.406       .  S
S871        H875   1.405       .  S
C877        C878   1.398       .  A
C877        C882   1.398       .  A
C877        H887   1.084       .  S
C878        C883   1.477       .  S
C878        C879   1.412       .  A
C879        C880   1.403       .  A
C879        S884   1.803       .  S
C880        C881   1.407       .  A
C880        H885   1.084       .  S
C881        C882   1.419       .  A
C882        S886   1.811       .  S
C883        C888   1.409       .  A
C883        C892   1.396       .  A
S884        H900   1.405       .  S
S886        H897   1.407       .  S
C888        C889   1.407       .  A
C888        S893   1.805       .  S
C889        C890   1.407       .  A
C889        H894   1.083       .  S
C890        C891   1.418       .  A
C891        C892   1.395       .  A
C891        S895   1.795       .  S
C892        H896   1.085       .  S
S893        H898   1.407       .  S
S895        H899   1.407       .  S
C901        C902   1.396       .  A
C901        C906   1.400       .  A
C901        H911   1.083       .  S
C902        C907   1.471       .  S
C902        C903   1.411       .  A
C903        C904   1.396       .  A
C903        S908   1.805       .  S
C904        C905   1.404       .  A
C904        H909   1.084       .  S
C905        C906   1.420       .  A
C906        S910   1.810       .  S
C907        C912   1.407       .  A
C907        C916   1.398       .  A
S908        H924   1.405       .  S
S910        H921   1.406       .  S
C912        C913   1.402       .  A
C912        S917   1.803       .  S
C913        C914   1.403       .  A
C913        H918   1.083       .  S
C914        C915   1.416       .  A
C915        C916   1.398       .  A
C915        S919   1.811       .  S
C916        H920   1.083       .  S
S917        H922   1.407       .  S
S919        H923   1.407       .  S
C925        C926   1.400       .  A
C925        C930   1.399       .  A
C925        H935   1.083       .  S
C926        C931   1.477       .  S
C926        C927   1.413       .  A
C927        C928   1.401       .  A
C927        S932   1.804       .  S
C928        C929   1.404       .  A
C928        H933   1.085       .  S
C929        C930   1.414       .  A
C930        S934   1.809       .  S
C931        C936   1.410       .  A
C931        C940   1.399       .  A
S932        H948   1.405       .  S
S934        H945   1.406       .  S
C936        C937   1.403       .  A
C936        S941   1.807       .  S
C937        C938   1.404       .  A
C937        H942   1.083       .  S
C938        C939   1.417       .  A
C939        C940   1.401       .  A
C939        S943   1.810       .  S
C940        H944   1.083       .  S
S941        H946   1.407       .  S
S943        H947   1.407       .  S
C949        C950   1.409       .  A
C949        C954   1.418       .  A
C949        H959   1.083       .  S
C950        C955   1.500       .  S
C950        C951   1.409       .  A
C951        C952   1.399       .  A
C951        S956   1.805       .  S
C952        C953   1.415       .  A
C952        H957   1.083       .  S
C953        C954   1.419       .  A
C954        S958   1.805       .  S
C955        C960   1.410       .  A
C955        C964   1.406       .  A
S956        H972   1.406       .  S
S958        H969   1.407       .  S
C960        C961   1.407       .  A
C960        S965   1.808       .  S
C961        C962   1.411       .  A
C961        H966   1.083       .  S
C962        C963   1.421       .  A
C963        C964   1.411       .  A
C963        S967   1.800       .  S
C964        H968   1.084       .  S
S965        H970   1.406       .  S
S967        H971   1.407       .  S
C973        C974   1.402       .  A
C973        C978   1.401       .  A
C973        H983   1.083       .  S
C974        C979   1.475       .  S
C974        C975   1.409       .  A
C975        C976   1.394       .  A
C975        S980   1.803       .  S
C976        C977   1.403       .  A
C976        H981   1.084       .  S
C977        C978   1.410       .  A
C978        S982   1.803       .  S
C979        C984   1.401       .  A
C979        C988   1.402       .  A
S980        H996   1.407       .  S
S982        H993   1.407       .  S
C984        C985   1.399       .  A
C984        S989   1.807       .  S
C985        C986   1.413       .  A
C985        H990   1.082       .  S
C986        C987   1.418       .  A
C987        C988   1.400       .  A
C987        S991   1.810       .  S
C988        H992   1.083       .  S
S989        H994   1.407       .  S
S991        H995   1.406       .  S
C997        C998   1.404       .  A
C997       C1002   1.400       .  A
C997       H1007   1.084       .  S
C998       C1003   1.480       .  S
C998        C999   1.411       .  A
C999       C1000   1.396       .  A
C999       S1004   1.804       .  S
C1000      C1001   1.403       .  A
C1000      H1005   1.085       .  S
C1001      C1002   1.408       .  A
C1002      S1006   1.801       .  S
C1003      C1008   1.407       .  A
C1003      C1012   1.404       .  A
S1004      H1020   1.407       .  S
S1006      H1017   1.405       .  S
C1008      C1009   1.404       .  A
C1008      S1013   1.805       .  S
C1009      C1010   1.408       .  A
C1009      H1014   1.083       .  S
C1010      C1011   1.411       .  A
C1011      C1012   1.397       .  A
C1011      S1015   1.803       .  S
C1012      H1016   1.084       .  S
S1013      H1018   1.406       .  S
S1015      H1019   1.407       .  S
C1021      C1022   1.404       .  A
C1021      C1026   1.407       .  A
C1021      H1031   1.084       .  S
C1022      C1027   1.502       .  S
C1022      C1023   1.419       .  A
C1023      C1024   1.410       .  A
C1023      S1028   1.806       .  S
C1024      C1025   1.408       .  A
C1024      H1029   1.082       .  S
C1025      C1026   1.418       .  A
C1026      S1030   1.802       .  S
C1027      C1032   1.407       .  A
C1027      C1036   1.411       .  A
S1028      H1044   1.403       .  S
S1030      H1041   1.407       .  S
C1032      C1033   1.406       .  A
C1032      S1037   1.807       .  S
C1033      C1034   1.414       .  A
C1033      H1038   1.083       .  S
C1034      C1035   1.417       .  A
C1035      C1036   1.416       .  A
C1035      S1039   1.800       .  S
C1036      H1040   1.084       .  S
S1037      H1042   1.405       .  S
S1039      H1043   1.407       .  S
C1045      C1046   1.403       .  A
C1045      C1050   1.405       .  A
C1045      H1055   1.083       .  S
C1046      C1051   1.474       .  S
C1046      C1047   1.408       .  A
C1047      C1048   1.394       .  A
C1047      S1052   1.808       .  S
C1048      C1049   1.409       .  A
C1048      H1053   1.084       .  S
C1049      C1050   1.417       .  A
C1050      S1054   1.807       .  S
C1051      C1056   1.403       .  A
C1051      C1060   1.400       .  A
S1052      H1068   1.401       .  S
S1054      H1065   1.407       .  S
C1056      C1057   1.398       .  A
C1056      S1061   1.808       .  S
C1057      C1058   1.412       .  A
C1057      H1062   1.080       .  S
C1058      C1059   1.421       .  A
C1059      C1060   1.401       .  A
C1059      S1063   1.799       .  S
C1060      H1064   1.084       .  S
S1061      H1066   1.407       .  S
S1063      H1067   1.402       .  S
C1069      C1070   1.404       .  A
C1069      C1074   1.401       .  A
C1069      H1079   1.083       .  S
C1070      C1075   1.485       .  S
C1070      C1071   1.417       .  A
C1071      C1072   1.398       .  A
C1071      S1076   1.804       .  S
C1072      C1073   1.399       .  A
C1072      H1077   1.084       .  S
C1073      C1074   1.411       .  A
C1074      S1078   1.808       .  S
C1075      C1080   1.416       .  A
C1075      C1084   1.403       .  A
S1076      H1092   1.406       .  S
S1078      H1089   1.407       .  S
C1080      C1081   1.403   1_554  A
C1080      S1085   1.808       .  S
C1081      C1082   1.399       .  A
C1081      H1086   1.083       .  S
C1082      C1083   1.411   1_556  A
C1083      C1084   1.397       .  A
C1083      S1087   1.805   1_554  S
C1084      H1088   1.084       .  S
S1085      H1090   1.407       .  S
S1087      H1091   1.406       .  S
C1093      C1094   1.401       .  A
C1093      C1098   1.400       .  A
C1093      H1103   1.084       .  S
C1094      C1099   1.474       .  S
C1094      C1095   1.408       .  A
C1095      C1096   1.394       .  A
C1095      S1100   1.803       .  S
C1096      C1097   1.407       .  A
C1096      H1101   1.084       .  S
C1097      C1098   1.416       .  A
C1098      S1102   1.800       .  S
C1099      C1104   1.408       .  A
C1099      C1108   1.395       .  A
S1100      H1116   1.404       .  S
S1102      H1113   1.407       .  S
C1104      C1105   1.402       .  A
C1104      S1109   1.807       .  S
C1105      C1106   1.404       .  A
C1105      H1110   1.083       .  S
C1106      C1107   1.424       .  A
C1107      C1108   1.400       .  A
C1107      S1111   1.811       .  S
C1108      H1112   1.083       .  S
S1109      H1114   1.407       .  S
S1111      H1115   1.406       .  S
C1117      C1118   1.414       .  A
C1117      C1122   1.409       .  A
C1117      H1127   1.080       .  S
C1118      C1123   1.528       .  S
C1118      C1119   1.424       .  A
C1119      C1120   1.410       .  A
C1119      S1124   1.803       .  S
C1120      C1121   1.408       .  A
C1120      H1125   1.084       .  S
C1121      C1122   1.414       .  A
C1122      S1126   1.801       .  S
C1123      C1128   1.422       .  A
C1123      C1132   1.417       .  A
S1124      H1140   1.407       .  S
S1126      H1137   1.407       .  S
C1128      C1129   1.412       .  A
C1128      S1133   1.809       .  S
C1129      C1130   1.408       .  A
C1129      H1134   1.081       .  S
C1130      C1131   1.412       .  A
C1131      C1132   1.413       .  A
C1131      S1135   1.802       .  S
C1132      H1136   1.082       .  S
S1133      H1138   1.407   1_554  S
S1135      H1139   1.406       .  S
C1141      C1142   1.402       .  A
C1141      C1146   1.402   1_456  A
C1141      H1151   1.084   1_556  S
C1142      C1147   1.512       .  S
C1142      C1143   1.422       .  A
C1143      C1144   1.416   1_455  A
C1143      S1148   1.800       .  S
C1144      C1145   1.406       .  A
C1144      H1149   1.084       .  S
C1145      C1146   1.420   1_556  A
C1146      S1150   1.801       .  S
C1147      C1152   1.415       .  A
C1147      C1156   1.410       .  A
S1148      H1164   1.405       .  S
S1150      H1161   1.402       .  S
C1152      C1153   1.410       .  A
C1152      S1157   1.808   1_556  S
C1153      C1154   1.411       .  A
C1153      H1158   1.082       .  S
C1154      C1155   1.418       .  A
C1155      C1156   1.413       .  A
C1155      S1159   1.798       .  S
C1156      H1160   1.083       .  S
S1157      H1162   1.407       .  S
S1159      H1163   1.407       .  S
C1165      C1166   1.408       .  A
C1165      C1170   1.411       .  A
C1165      H1175   1.083       .  S
C1166      C1171   1.508       .  S
C1166      C1167   1.416       .  A
C1167      C1168   1.410       .  A
C1167      S1172   1.804       .  S
C1168      C1169   1.410       .  A
C1168      H1173   1.080       .  S
C1169      C1170   1.416       .  A
C1170      S1174   1.801       .  S
C1171      C1176   1.408       .  A
C1171      C1180   1.410       .  A
S1172      H1188   1.406       .  S
S1174      H1185   1.407       .  S
C1176      C1177   1.408       .  A
C1176      S1181   1.808       .  S
C1177      C1178   1.418       .  A
C1177      H1182   1.082       .  S
C1178      C1179   1.419       .  A
C1179      C1180   1.417       .  A
C1179      S1183   1.798       .  S
C1180      H1184   1.083       .  S
S1181      H1186   1.407       .  S
S1183      H1187   1.407       .  S
C1189      C1190   1.403       .  A
C1189      C1194   1.407   1_455  A
C1189      H1199   1.084       .  S
C1190      C1195   1.502       .  S
C1190      C1191   1.417       .  A
C1191      C1192   1.410   1_455  A
C1191      S1196   1.803       .  S
C1192      C1193   1.409       .  A
C1192      H1197   1.083       .  S
C1193      C1194   1.421       .  A
C1194      S1198   1.804       .  S
C1195      C1200   1.416       .  A
C1195      C1204   1.396       .  A
S1196      H1212   1.405       .  S
S1198      H1209   1.407       .  S
C1200      C1201   1.419       .  A
C1200      S1205   1.804   1_455  S
C1201      C1202   1.409       .  A
C1201      H1206   1.083       .  S
C1202      C1203   1.429       .  A
C1203      C1204   1.405       .  A
C1203      S1207   1.809       .  S
C1204      H1208   1.083       .  S
S1205      H1210   1.407   1_655  S
S1207      H1211   1.407       .  S
C1213      C1214   1.399       .  A
C1213      C1218   1.400       .  A
C1213      H1223   1.083       .  S
C1214      C1219   1.480       .  S
C1214      C1215   1.414       .  A
C1215      C1216   1.401       .  A
C1215      S1220   1.804       .  S
C1216      C1217   1.402       .  A
C1216      H1221   1.084       .  S
C1217      C1218   1.417       .  A
C1218      S1222   1.811       .  S
C1219      C1224   1.411       .  A
C1219      C1228   1.402       .  A
S1220      H1236   1.406       .  S
S1222      H1233   1.407       .  S
C1224      C1225   1.402       .  A
C1224      S1229   1.807       .  S
C1225      C1226   1.400       .  A
C1225      H1230   1.079       .  S
C1226      C1227   1.411       .  A
C1227      C1228   1.399       .  A
C1227      S1231   1.801       .  S
C1228      H1232   1.084       .  S
S1229      H1234   1.406       .  S
S1231      H1235   1.405       .  S
C1237      C1238   1.404       .  A
C1237      C1242   1.402       .  A
C1237      H1247   1.084       .  S
C1238      C1243   1.485       .  S
C1238      C1239   1.416       .  A
C1239      C1240   1.397       .  A
C1239      S1244   1.806       .  S
C1240      C1241   1.400       .  A
C1240      H1245   1.085       .  S
C1241      C1242   1.414       .  A
C1242      S1246   1.804       .  S
C1243      C1248   1.407       .  A
C1243      C1252   1.405       .  A
S1244      H1260   1.406       .  S
S1246      H1257   1.404       .  S
C1248      C1249   1.399       .  A
C1248      S1253   1.808       .  S
C1249      C1250   1.409       .  A
C1249      H1254   1.083       .  S
C1250      C1251   1.416       .  A
C1251      C1252   1.404       .  A
C1251      S1255   1.800       .  S
C1252      H1256   1.084       .  S
S1253      H1258   1.407       .  S
S1255      H1259   1.407       .  S
C1261      C1262   1.413       .  A
C1261      C1266   1.416       .  A
C1261      H1271   1.083       .  S
C1262      C1267   1.509       .  S
C1262      C1263   1.412       .  A
C1263      C1264   1.400       .  A
C1263      S1268   1.805       .  S
C1264      C1265   1.415       .  A
C1264      H1269   1.083       .  S
C1265      C1266   1.418       .  A
C1266      S1270   1.798       .  S
C1267      C1272   1.416       .  A
C1267      C1276   1.406       .  A
S1268      H1284   1.406       .  S
S1270      H1281   1.407       .  S
C1272      C1273   1.414       .  A
C1272      S1277   1.806       .  S
C1273      C1274   1.409       .  A
C1273      H1278   1.082       .  S
C1274      C1275   1.417       .  A
C1275      C1276   1.408       .  A
C1275      S1279   1.808       .  S
C1276      H1280   1.082       .  S
S1277      H1282   1.407       .  S
S1279      H1283   1.407       .  S
C1285      C1286   1.408       .  A
C1285      C1290   1.412       .  A
C1285      H1295   1.084       .  S
C1286      C1291   1.494       .  S
C1286      C1287   1.408       .  A
C1287      C1288   1.399       .  A
C1287      S1292   1.804       .  S
C1288      C1289   1.412       .  A
C1288      H1293   1.084       .  S
C1289      C1290   1.417       .  A
C1290      S1294   1.800       .  S
C1291      C1296   1.409       .  A
C1291      C1300   1.405       .  A
S1292      H1308   1.406       .  S
S1294      H1305   1.407       .  S
C1296      C1297   1.405       .  A
C1296      S1301   1.808       .  S
C1297      C1298   1.411       .  A
C1297      H1302   1.081       .  S
C1298      C1299   1.419       .  A
C1299      C1300   1.409       .  A
C1299      S1303   1.799       .  S
C1300      H1304   1.083       .  S
S1301      H1306   1.407       .  S
S1303      H1307   1.407       .  S
C1309      C1310   1.402       .  A
C1309      C1314   1.394       .  A
C1309      H1319   1.084       .  S
C1310      C1315   1.473       .  S
C1310      C1311   1.412       .  A
C1311      C1312   1.396       .  A
C1311      S1316   1.805       .  S
C1312      C1313   1.402       .  A
C1312      H1317   1.085       .  S
C1313      C1314   1.408       .  A
C1314      S1318   1.804       .  S
C1315      C1320   1.412       .  A
C1315      C1324   1.397       .  A
S1316      H1332   1.406       .  S
S1318      H1329   1.408       .  S
C1320      C1321   1.403       .  A
C1320      S1325   1.808       .  S
C1321      C1322   1.402       .  A
C1321      H1326   1.083       .  S
C1322      C1323   1.416       .  A
C1323      C1324   1.393       .  A
C1323      S1327   1.803       .  S
C1324      H1328   1.084       .  S
S1325      H1330   1.407       .  S
S1327      H1331   1.404       .  S
C1333      C1334   1.406       .  A
C1333      C1338   1.407       .  A
C1333      H1343   1.084       .  S
C1334      C1339   1.517       .  S
C1334      C1335   1.424       .  A
C1335      C1336   1.417       .  A
C1335      S1340   1.804       .  S
C1336      C1337   1.409       .  A
C1336      H1341   1.083       .  S
C1337      C1338   1.420       .  A
C1338      S1342   1.804       .  S
C1339      C1344   1.420       .  A
C1339      C1348   1.406       .  A
S1340      H1356   1.405       .  S
S1342      H1353   1.408       .  S
C1344      C1345   1.417       .  A
C1344      S1349   1.805       .  S
C1345      C1346   1.408       .  A
C1345      H1350   1.082       .  S
C1346      C1347   1.420       .  A
C1347      C1348   1.412       .  A
C1347      S1351   1.809       .  S
C1348      H1352   1.082       .  S
S1349      H1354   1.407       .  S
S1351      H1355   1.407       .  S
C1357      C1358   1.403       .  A
C1357      C1362   1.401       .  A
C1357      H1367   1.084       .  S
C1358      C1363   1.477       .  S
C1358      C1359   1.407       .  A
C1359      C1360   1.399       .  A
C1359      S1364   1.804       .  S
C1360      C1361   1.413       .  A
C1360      H1365   1.083       .  S
C1361      C1362   1.418       .  A
C1362      S1366   1.801   1_556  S
C1363      C1368   1.404       .  A
C1363      C1372   1.405       .  A
S1364      H1380   1.405       .  S
S1366      H1377   1.408   1_554  S
C1368      C1369   1.392       .  A
C1368      S1373   1.811   1_556  S
C1369      C1370   1.409       .  A
C1369      H1374   1.081   1_556  S
C1370      C1371   1.415       .  A
C1371      C1372   1.408       .  A
C1371      S1375   1.797       .  S
C1372      H1376   1.083       .  S
S1373      H1378   1.406       .  S
S1375      H1379   1.407       .  S
C1381      C1382   1.406   1_554  A
C1381      C1386   1.406       .  A
C1381      H1391   1.083       .  S
C1382      C1387   1.511       .  S
C1382      C1383   1.420       .  A
C1383      C1384   1.410       .  A
C1383      S1388   1.800       .  S
C1384      C1385   1.407       .  A
C1384      H1389   1.084       .  S
C1385      C1386   1.418   1_556  A
C1386      S1390   1.804       .  S
C1387      C1392   1.413       .  A
C1387      C1396   1.411       .  A
S1388      H1404   1.405       .  S
S1390      H1401   1.407       .  S
C1392      C1393   1.408       .  A
C1392      S1397   1.809       .  S
C1393      C1394   1.413       .  A
C1393      H1398   1.082       .  S
C1394      C1395   1.418       .  A
C1395      C1396   1.414       .  A
C1395      S1399   1.798       .  S
C1396      H1400   1.083       .  S
S1397      H1402   1.406   1_556  S
S1399      H1403   1.407       .  S
C1405      C1406   1.402       .  A
C1405      C1410   1.399       .  A
C1405      H1415   1.084       .  S
C1406      C1411   1.485       .  S
C1406      C1407   1.414       .  A
C1407      C1408   1.404       .  A
C1407      S1412   1.804       .  S
C1408      C1409   1.404       .  A
C1408      H1413   1.083       .  S
C1409      C1410   1.415       .  A
C1410      S1414   1.804       .  S
C1411      C1416   1.410       .  A
C1411      C1420   1.398       .  A
S1412      H1428   1.406       .  S
S1414      H1425   1.407       .  S
C1416      C1417   1.407       .  A
C1416      S1421   1.806       .  S
C1417      C1418   1.408       .  A
C1417      H1422   1.083       .  S
C1418      C1419   1.421       .  A
C1419      C1420   1.403       .  A
C1419      S1423   1.810       .  S
C1420      H1424   1.083       .  S
S1421      H1426   1.407       .  S
S1423      H1427   1.407       .  S
C1429      C1430   1.404       .  A
C1429      C1434   1.402       .  A
C1429      H1439   1.084       .  S
C1430      C1435   1.484       .  S
C1430      C1431   1.413       .  A
C1431      C1432   1.399       .  A
C1431      S1436   1.805       .  S
C1432      C1433   1.403       .  A
C1432      H1437   1.084       .  S
C1433      C1434   1.412       .  A
C1434      S1438   1.799       .  S
C1435      C1440   1.413       .  A
C1435      C1444   1.401       .  A
S1436      H1452   1.406       .  S
S1438      H1449   1.406       .  S
C1440      C1441   1.405       .  A
C1440      S1445   1.807       .  S
C1441      C1442   1.403       .  A
C1441      H1446   1.083       .  S
C1442      C1443   1.413       .  A
C1443      C1444   1.403       .  A
C1443      S1447   1.808       .  S
C1444      H1448   1.083       .  S
S1445      H1450   1.407       .  S
S1447      H1451   1.407       .  S
C1453      C1454   1.410       .  A
C1453      C1458   1.414       .  A
C1453      H1463   1.084       .  S
C1454      C1459   1.509       .  S
C1454      C1455   1.414       .  A
C1455      C1456   1.408       .  A
C1455      S1460   1.804       .  S
C1456      C1457   1.412       .  A
C1456      H1461   1.084       .  S
C1457      C1458   1.417       .  A
C1458      S1462   1.798       .  S
C1459      C1464   1.416       .  A
C1459      C1468   1.403       .  A
S1460      H1476   1.406       .  S
S1462      H1473   1.407       .  S
C1464      C1465   1.417       .  A
C1464      S1469   1.804       .  S
C1465      C1466   1.407       .  A
C1465      H1470   1.081       .  S
C1466      C1467   1.416       .  A
C1467      C1468   1.409       .  A
C1467      S1471   1.803       .  S
C1468      H1472   1.082       .  S
S1469      H1474   1.407       .  S
S1471      H1475   1.406       .  S
C1477      C1478   1.396       .  A
C1477      C1482   1.402       .  A
C1477      H1487   1.083       .  S
C1478      C1483   1.471       .  S
C1478      C1479   1.408       .  A
C1479      C1480   1.399       .  A
C1479      S1484   1.808       .  S
C1480      C1481   1.404       .  A
C1480      H1485   1.083       .  S
C1481      C1482   1.421       .  A
C1482      S1486   1.811       .  S
C1483      C1488   1.408       .  A
C1483      C1492   1.399       .  A
S1484      H1500   1.407       .  S
S1486      H1497   1.407       .  S
C1488      C1489   1.401       .  A
C1488      S1493   1.805       .  S
C1489      C1490   1.404       .  A
C1489      H1494   1.084       .  S
C1490      C1491   1.411       .  A
C1491      C1492   1.394       .  A
C1491      S1495   1.801       .  S
C1492      H1496   1.084       .  S
S1493      H1498   1.407       .  S
S1495      H1499   1.407       .  S
C1501      C1502   1.403       .  A
C1501      C1506   1.405       .  A
C1501      H1511   1.084       .  S
C1502      C1507   1.507       .  S
C1502      C1503   1.420       .  A
C1503      C1504   1.412       .  A
C1503      S1508   1.804       .  S
C1504      C1505   1.408       .  A
C1504      H1509   1.083       .  S
C1505      C1506   1.423       .  A
C1506      S1510   1.803       .  S
C1507      C1512   1.417       .  A
C1507      C1516   1.404       .  A
S1508      H1524   1.405       .  S
S1510      H1521   1.407       .  S
C1512      C1513   1.416       .  A
C1512      S1517   1.806       .  S
C1513      C1514   1.408       .  A
C1513      H1518   1.083       .  S
C1514      C1515   1.419       .  A
C1515      C1516   1.404       .  A
C1515      S1519   1.803       .  S
C1516      H1520   1.084       .  S
S1517      H1522   1.407       .  S
S1519      H1523   1.407       .  S
C1525      C1526   1.403       .  A
C1525      C1530   1.399       .  A
C1525      H1535   1.083       .  S
C1526      C1531   1.478       .  S
C1526      C1527   1.407       .  A
C1527      C1528   1.396       .  A
C1527      S1532   1.804       .  S
C1528      C1529   1.410       .  A
C1528      H1533   1.084       .  S
C1529      C1530   1.417       .  A
C1530      S1534   1.811       .  S
C1531      C1536   1.408       .  A
C1531      C1540   1.403       .  A
S1532      H1548   1.406       .  S
S1534      H1545   1.406       .  S
C1536      C1537   1.397       .  A
C1536      S1541   1.807       .  S
C1537      C1538   1.404       .  A
C1537      H1542   1.082       .  S
C1538      C1539   1.410       .  A
C1539      C1540   1.397       .  A
C1539      S1543   1.797       .  S
C1540      H1544   1.084       .  S
S1541      H1546   1.407       .  S
S1543      H1547   1.406       .  S
C1549      C1550   1.400       .  A
C1549      C1554   1.409       .  A
C1549      H1559   1.082       .  S
C1550      C1555   1.507       .  S
C1550      C1551   1.418       .  A
C1551      C1552   1.413       .  A
C1551      S1556   1.803       .  S
C1552      C1553   1.410       .  A
C1552      H1557   1.083       .  S
C1553      C1554   1.430       .  A
C1554      S1558   1.811       .  S
C1555      C1560   1.415       .  A
C1555      C1564   1.405       .  A
S1556      H1572   1.406       .  S
S1558      H1569   1.406       .  S
C1560      C1561   1.415       .  A
C1560      S1565   1.805       .  S
C1561      C1562   1.410       .  A
C1561      H1566   1.083       .  S
C1562      C1563   1.418       .  A
C1563      C1564   1.406       .  A
C1563      S1567   1.803       .  S
C1564      H1568   1.084       .  S
S1565      H1570   1.407       .  S
S1567      H1571   1.407       .  S
C1573      C1574   1.401       .  A
C1573      C1578   1.400       .  A
C1573      H1583   1.083       .  S
C1574      C1579   1.481       .  S
C1574      C1575   1.411       .  A
C1575      C1576   1.398       .  A
C1575      S1580   1.804       .  S
C1576      C1577   1.404       .  A
C1576      H1581   1.084       .  S
C1577      C1578   1.410       .  A
C1578      S1582   1.799       .  S
C1579      C1584   1.414       .  A
C1579      C1588   1.400       .  A
S1580      H1596   1.407       .  S
S1582      H1593   1.406   1_556  S
C1584      C1585   1.399       .  A
C1584      S1589   1.810       .  S
C1585      C1586   1.404       .  A
C1585      H1590   1.082   1_556  S
C1586      C1587   1.419       .  A
C1587      C1588   1.398       .  A
C1587      S1591   1.803       .  S
C1588      H1592   1.084       .  S
S1589      H1594   1.407   1_556  S
S1591      H1595   1.408   1_556  S
C1597      C1598   1.411       .  A
C1597      C1602   1.419       .  A
C1597      H1607   1.082       .  S
C1598      C1603   1.512       .  S
C1598      C1599   1.417       .  A
C1599      C1600   1.402   1_556  A
C1599      S1604   1.805   1_556  S
C1600      C1601   1.411   1_554  A
C1600      H1605   1.084       .  S
C1601      C1602   1.416       .  A
C1602      S1606   1.798       .  S
C1603      C1608   1.419       .  A
C1603      C1612   1.401       .  A
S1604      H1620   1.406       .  S
S1606      H1617   1.407       .  S
C1608      C1609   1.420       .  A
C1608      S1613   1.806       .  S
C1609      C1610   1.409       .  A
C1609      H1614   1.082       .  S
C1610      C1611   1.424       .  A
C1611      C1612   1.405       .  A
C1611      S1615   1.812       .  S
C1612      H1616   1.082       .  S
S1613      H1618   1.407       .  S
S1615      H1619   1.406   1_556  S
C1621      C1622   1.399       .  A
C1621      C1626   1.396       .  A
C1621      H1631   1.084       .  S
C1622      C1627   1.482       .  S
C1622      C1623   1.414       .  A
C1623      C1624   1.401       .  A
C1623      S1628   1.804       .  S
C1624      C1625   1.405       .  A
C1624      H1629   1.084       .  S
C1625      C1626   1.420       .  A
C1626      S1630   1.805       .  S
C1627      C1632   1.412       .  A
C1627      C1636   1.397       .  A
S1628      H1644   1.406       .  S
S1630      H1641   1.408       .  S
C1632      C1633   1.408       .  A
C1632      S1637   1.805       .  S
C1633      C1634   1.406       .  A
C1633      H1638   1.083       .  S
C1634      C1635   1.419       .  A
C1635      C1636   1.393       .  A
C1635      S1639   1.801       .  S
C1636      H1640   1.085       .  S
S1637      H1642   1.404   1_545  S
S1639      H1643   1.407       .  S
C1645      C1646   1.402       .  A
C1645      C1650   1.397       .  A
C1645      H1655   1.084       .  S
C1646      C1651   1.485       .  S
C1646      C1647   1.418       .  A
C1647      C1648   1.398       .  A
C1647      S1652   1.805       .  S
C1648      C1649   1.399       .  A
C1648      H1653   1.084       .  S
C1649      C1650   1.412       .  A
C1650      S1654   1.807       .  S
C1651      C1656   1.415       .  A
C1651      C1660   1.400       .  A
S1652      H1668   1.407       .  S
S1654      H1665   1.400       .  S
C1656      C1657   1.404       .  A
C1656      S1661   1.807       .  S
C1657      C1658   1.401       .  A
C1657      H1662   1.083       .  S
C1658      C1659   1.417       .  A
C1659      C1660   1.397       .  A
C1659      S1663   1.810       .  S
C1660      H1664   1.083       .  S
S1661      H1666   1.407       .  S
S1663      H1667   1.407       .  S
C1669      C1670   1.400       .  A
C1669      C1674   1.394       .  A
C1669      H1679   1.084       .  S
C1670      C1675   1.480       .  S
C1670      C1671   1.417   1_556  A
C1671      C1672   1.398       .  A
C1671      S1676   1.802       .  S
C1672      C1673   1.399       .  A
C1672      H1677   1.084       .  S
C1673      C1674   1.410   1_554  A
C1674      S1678   1.793       .  S
C1675      C1680   1.410       .  A
C1675      C1684   1.405       .  A
S1676      H1692   1.407       .  S
S1678      H1689   1.405       .  S
C1680      C1681   1.398       .  A
C1680      S1685   1.810       .  S
C1681      C1682   1.408       .  A
C1681      H1686   1.084       .  S
C1682      C1683   1.411       .  A
C1683      C1684   1.399       .  A
C1683      S1687   1.800       .  S
C1684      H1688   1.084       .  S
S1685      H1690   1.407       .  S
S1687      H1691   1.407       .  S
