geometry optimzed in LAMMPS
_audit_creation_date              2020-11-30 
_audit_creation_method            'lammps2cif' 
_symmetry_space_group_name_H-M    'P1' 
_symmetry_Int_Tables_number       1 
_symmetry_cell_setting            triclinic 
loop_ 
_symmetry_equiv_pos_as_xyz 
  x,y,z 
_cell_length_a                    30.29349792 
_cell_length_b                    30.251508432002606 
_cell_length_c                    26.70893577475551 
_cell_angle_alpha                 90.87767875494531 
_cell_angle_beta                  90.23432081154702 
_cell_angle_gamma                 119.77963742518327 
loop_ 
_atom_site_label 
_atom_site_type_symbol 
_atom_site_fract_x 
_atom_site_fract_y 
_atom_site_fract_z 
_atom_site_charge 
In1        In  0.01517300  0.67662543  0.93463639     1.36900
C2          C  0.01254057  0.66986390  0.03408102     0.77100
O3          O  0.97631347  0.71970792  0.95774716    -0.61400
O4          O  0.93720290  0.65721446  0.90775979    -0.52300
C5          C  0.08729770  0.74718045  0.87688342     0.69700
O6          O  0.09723683  0.73508750  0.91871451    -0.47100
C7          C  0.00853339  0.58843960  0.90794010     0.74400
O8          O  0.04556546  0.70904953  0.01197052    -0.59000
O9          O  0.97977992  0.60327247  0.88964920    -0.49100
O10         O  0.98280749  0.63375602  0.00527013    -0.55400
C11         C  0.93550349  0.69123856  0.93420168     0.84600
O12         O  0.04086085  0.72346346  0.86498834    -0.57300
O13         O  0.04285987  0.62052383  0.93686447    -0.60600
In14       In  0.97780930  0.30309603  0.95500113     1.36900
C15         C  0.98033489  0.31246137  0.05399140     0.77100
O16         O  0.01701275  0.26103314  0.97961448    -0.61400
O17         O  0.05909193  0.32823369  0.93794119    -0.52300
C18         C  0.90627584  0.23011120  0.89614087     0.69700
O19         O  0.89573653  0.24611345  0.93568724    -0.47100
C20         C  0.98209307  0.38766750  0.92260753     0.74400
O21         O  0.94705606  0.27270160  0.03111506    -0.59000
O22         O  0.00814973  0.36970314  0.90379768    -0.49100
O23         O  0.00897243  0.34834978  0.02595400    -0.55400
C24         C  0.05987144  0.29411038  0.96399792     0.84600
O25         O  0.95314937  0.25070611  0.88750515    -0.57300
O26         O  0.95231760  0.36081553  0.95639554    -0.60600
In27       In  0.01867416  0.32209799  0.36663695     1.36900
C28         C  0.01723869  0.32760518  0.26771289     0.77100
O29         O  0.98055546  0.24188296  0.33811670    -0.61400
O30         O  0.94070849  0.26274768  0.38947443    -0.52300
C31         C  0.08721441  0.32134035  0.42981156     0.69700
O32         O  0.09917634  0.34241865  0.38778105    -0.47100
C33         C  0.01243945  0.40469837  0.38946912     0.74400
O34         O  0.05035597  0.32115440  0.29049874    -0.59000
O35         O  0.98207379  0.36139800  0.40645640    -0.49100
O36         O  0.98712584  0.33348219  0.29573901    -0.55400
C37         C  0.93927205  0.22905105  0.35991972     0.84600
O38         O  0.04056868  0.30073137  0.43930033    -0.57300
O39         O  0.04812583  0.40602455  0.36419649    -0.60600
In40       In  0.98021134  0.66199397  0.34768501     1.36900
C41         C  0.98107675  0.65525752  0.24831812     0.77100
O42         O  0.01991989  0.74324071  0.32351961    -0.61400
O43         O  0.06008657  0.71923844  0.37055248    -0.52300
C44         C  0.90737194  0.66124621  0.40573121     0.69700
O45         O  0.89751999  0.63528449  0.36564165    -0.47100
C46         C  0.98730712  0.58141097  0.37642693     0.74400
O47         O  0.94732448  0.66051354  0.27112302    -0.59000
O48         O  0.01346959  0.62501827  0.39647359    -0.49100
O49         O  0.01189259  0.65065451  0.27653670    -0.55400
C50         C  0.06193726  0.75399118  0.34353385     0.84600
O51         O  0.95420205  0.68819192  0.41533728    -0.57300
O52         O  0.95641912  0.57916673  0.34339149    -0.60600
In53       In  0.31165674  0.32259102  0.62172925     1.36900
C54         C  0.32172917  0.33181086  0.72038414     0.77100
O55         O  0.26801903  0.24175335  0.64594599    -0.61400
O56         O  0.33563788  0.26508980  0.60468553    -0.52300
C57         C  0.23820963  0.32151347  0.56444010     0.69700
O58         O  0.25335472  0.34663349  0.60511043    -0.47100
C59         C  0.39778547  0.40143850  0.59044908     0.74400
O60         O  0.28260028  0.32707573  0.69809917    -0.59000
O61         O  0.37935692  0.35752672  0.57078977    -0.49100
O62         O  0.35634291  0.33542006  0.69194384    -0.55400
C63         C  0.30061560  0.23083182  0.63005145     0.84600
O64         O  0.26034028  0.29678812  0.55351274    -0.57300
O65         O  0.37042601  0.40494225  0.62394330    -0.60600
In66       In  0.68790459  0.65414568  0.60744723     1.36900
C67         C  0.67693123  0.64662578  0.70603571     0.77100
O68         O  0.73516428  0.73510824  0.63276465    -0.61400
O69         O  0.66516497  0.71310418  0.59487554    -0.52300
C70         C  0.75742868  0.65617908  0.54444021     0.69700
O71         O  0.74865895  0.63463651  0.58632325    -0.47100
C72         C  0.60049785  0.57353450  0.57991078     0.74400
O73         O  0.71779115  0.65447924  0.68547088    -0.59000
O74         O  0.61466808  0.61752453  0.56357348    -0.49100
O75         O  0.64136986  0.63817217  0.67608143    -0.55400
C76         C  0.70205317  0.74672418  0.62055523     0.84600
O77         O  0.73061006  0.67630582  0.53498910    -0.57300
O78         O  0.63348286  0.57030241  0.60625399    -0.60600
In79       In  0.33889245  0.30982910  0.03176800     1.36900
C80         C  0.34413971  0.31626811  0.93286032     0.77100
O81         O  0.25702840  0.26741229  0.00833839    -0.61400
O82         O  0.28225545  0.33487626  0.05156575    -0.52300
C83         C  0.33916684  0.23734027  0.08776687     0.69700
O84         O  0.36062543  0.24960512  0.04589501    -0.47100
C85         C  0.42000217  0.39567448  0.06329446     0.74400
O86         O  0.33688717  0.27665248  0.95514844    -0.59000
O87         O  0.37660572  0.37922462  0.08206224    -0.49100
O88         O  0.35229137  0.35324246  0.96130292    -0.55400
C89         C  0.24645850  0.29974303  0.02616501     0.84600
O90         O  0.31737579  0.26189718  0.10057288    -0.57300
O91         O  0.42248573  0.36620905  0.03095084    -0.60600
In92       In  0.66455286  0.68141058  0.01485742     1.36900
C93         C  0.65069279  0.67123084  0.91658565     0.77100
O94         O  0.74369315  0.72730721  0.98718355    -0.61400
O95         O  0.72240228  0.65667784  0.02192673    -0.52300
C96         C  0.66706397  0.75241554  0.07663424     0.69700
O97         O  0.63742060  0.73540821  0.03911572    -0.47100
C98         C  0.58980098  0.59659932  0.05195388     0.74400
O99         O  0.65861333  0.71138883  0.93980561    -0.59000
O100        O  0.63520432  0.61565547  0.06741403    -0.49100
O101        O  0.64440667  0.63541213  0.94440746    -0.55400
C102        C  0.75514032  0.69362212  0.99716473     0.84600
O103        O  0.69621214  0.73416809  0.08158813    -0.57300
O104        O  0.58313958  0.62237650  0.01918946    -0.60600
In105      In  0.31044777  0.96389408  0.68559663     1.36900
C106        C  0.32086407  0.96845148  0.58659128     0.77100
O107        O  0.27081917  0.00495595  0.65991010    -0.61400
O108        O  0.33245803  0.04317242  0.71115753    -0.52300
C109        C  0.23756690  0.89375753  0.74301412     0.69700
O110        O  0.25134219  0.88227141  0.70262884    -0.47100
C111        C  0.39632323  0.96769932  0.71501120     0.74400
O112        O  0.28070804  0.93483363  0.60710295    -0.59000
O113        O  0.38081198  0.99586636  0.73399379    -0.49100
O114        O  0.35592322  0.99692923  0.61687492    -0.54200
C115        C  0.30045333  0.04597683  0.68286758     0.84600
O116        O  0.26027830  0.94073058  0.75317704    -0.57300
O117        O  0.36579709  0.93529045  0.68358368    -0.60600
In118      In  0.68887137  0.00630830  0.69704954     1.36900
C119        C  0.68243613  0.00176398  0.59770322     0.77100
O120        O  0.73289539  0.96865900  0.67454168    -0.61400
O121        O  0.66990854  0.92869109  0.72169038    -0.52300
C122        C  0.75748692  0.07832391  0.75884346     0.69700
O123        O  0.74532398  0.08860664  0.71715572    -0.47100
C124        C  0.59973276  0.99757903  0.71990198     0.74400
O125        O  0.72183162  0.03537373  0.62069549    -0.59000
O126        O  0.61467116  0.96875914  0.73758848    -0.49100
O127        O  0.64653512  0.97277246  0.62555097    -0.55400
C128        C  0.70375117  0.92727855  0.69546291     0.84600
O129        O  0.73458969  0.03164972  0.76856962    -0.57300
O130        O  0.63205999  0.03294887  0.69345490    -0.60600
In131      In  0.33918315  0.01351884  0.27537773     1.36900
C132        C  0.34657458  0.01269270  0.37484008     0.77100
O133        O  0.25835978  0.97768622  0.29958907    -0.61400
O134        O  0.28035383  0.93295136  0.25592250    -0.52300
C135        C  0.34094367  0.08540588  0.21662055     0.69700
O136        O  0.36723980  0.09607347  0.25635324    -0.47100
C137        C  0.41694078  0.00363307  0.24408606     0.74400
O138        O  0.33783269  0.04436070  0.35275310    -0.59000
O139        O  0.37234420  0.97591806  0.22705463    -0.49100
O140        O  0.35586117  0.98512167  0.34594710    -0.55400
C141        C  0.24639908  0.93414201  0.28226914     0.84600
O142        O  0.31389492  0.03840451  0.20734379    -0.57300
O143        O  0.42148568  0.03769637  0.27490996    -0.60600
In144      In  0.66649907  0.96512710  0.28454661     1.36900
C145        C  0.65925643  0.96493527  0.38355903     0.77100
O146        O  0.74780082  0.00157991  0.30921333    -0.61400
O147        O  0.72295566  0.04625520  0.27044077    -0.52300
C148        C  0.66825699  0.89674040  0.22198903     0.69700
O149        O  0.64688898  0.88485059  0.26397517    -0.47100
C150        C  0.58797401  0.97255102  0.25109543     0.74400
O151        O  0.66494044  0.93159528  0.35982605    -0.59000
O152        O  0.63280245  0.00085684  0.23662613    -0.49100
O153        O  0.65266195  0.99479109  0.35623286    -0.55400
C154        C  0.75780612  0.04520365  0.29545644     0.84600
O155        O  0.68928824  0.94350451  0.21287207    -0.57300
O156        O  0.58303682  0.93846615  0.28095959    -0.60600
C157        C  0.55240278  0.03047127  0.23548098    -0.02400
C158        C  0.54514968  0.98059685  0.23707286     0.07300
C159        C  0.49581266  0.93852639  0.22994367    -0.02500
C160        C  0.45338850  0.94583149  0.22782838    -0.02500
C161        C  0.46031057  0.99558377  0.23229917     0.07500
C162        C  0.51013043  0.03779335  0.23256216    -0.02700
Br163      Br  0.52103543  0.10626495  0.22901069    -0.01200
Br164      Br  0.61954545  0.08970004  0.24153559    -0.01300
Br165      Br  0.38625152  0.88672276  0.22239303    -0.01300
Br166      Br  0.48619235  0.87063092  0.22254324    -0.01200
C167        C  0.63609897  0.99235425  0.51723299    -0.02400
C168        C  0.67816485  0.99483390  0.54265875     0.07300
C169        C  0.71294981  0.98545901  0.51612256    -0.02500
C170        C  0.70597167  0.97419896  0.46430704    -0.02500
C171        C  0.66372152  0.97162462  0.43877445     0.07500
C172        C  0.62892985  0.98092357  0.46552439    -0.02700
Br173      Br  0.57017003  0.97637734  0.43199918    -0.01200
Br174      Br  0.58875931  0.00600359  0.55317029    -0.01300
Br175      Br  0.75628191  0.96518703  0.42829639    -0.01300
Br176      Br  0.76884589  0.98534049  0.55104627    -0.01200
C177        C  0.28866727  0.98109293  0.50432751    -0.02400
C178        C  0.32625942  0.97681982  0.53179596     0.07300
C179        C  0.37151266  0.98614656  0.50785245    -0.02500
C180        C  0.37932762  0.00015173  0.45709823    -0.02500
C181        C  0.34176595  0.00457414  0.42968917     0.07500
C182        C  0.29636252  0.99485498  0.45360009    -0.02700
Br183      Br  0.24297538  0.99782421  0.41660889    -0.01200
Br184      Br  0.22697048  0.97004819  0.53624503    -0.01300
Br185      Br  0.44255465  0.01525787  0.42579815    -0.01300
Br186      Br  0.42185141  0.97715882  0.54397615    -0.01200
C187        C  0.49007175  0.02370974  0.73266457    -0.02400
C188        C  0.44755807  0.97429949  0.72536926     0.07300
C189        C  0.45543498  0.93203653  0.72177378    -0.02500
C190        C  0.50517076  0.93947906  0.72091304    -0.02500
C191        C  0.54755795  0.98901416  0.72670974     0.07500
C192        C  0.53962739  0.03077512  0.73412092    -0.02700
Br193      Br  0.59679803  0.09842663  0.74542705    -0.01200
Br194      Br  0.48236252  0.08336452  0.73603094    -0.01300
Br195      Br  0.51449683  0.88197548  0.70555975    -0.01300
Br196      Br  0.39831513  0.86336301  0.71816981    -0.01200
C197        C  0.62287438  0.81308046  0.17511029    -0.02400
C198        C  0.66819338  0.85921358  0.18568429     0.07300
C199        C  0.71300324  0.87039300  0.15966740    -0.02500
C200        C  0.71233256  0.83591570  0.12321958    -0.02500
C201        C  0.66711211  0.78987738  0.11282942     0.07500
C202        C  0.62244018  0.77865225  0.13880315    -0.02700
Br203      Br  0.56074550  0.71518927  0.12610022    -0.01200
Br204      Br  0.56043620  0.79732229  0.20857363    -0.01300
Br205      Br  0.77291265  0.85289283  0.08576262    -0.01300
Br206      Br  0.77628874  0.93173212  0.17542770    -0.01200
C207        C  0.45580718  0.48966869  0.07313480    -0.02400
C208        C  0.46338894  0.44728921  0.07417529     0.07300
C209        C  0.51329658  0.45529612  0.07822336    -0.02500
C210        C  0.55545289  0.50491324  0.07532915    -0.02500
C211        C  0.54761475  0.54678591  0.06808809     0.07500
C212        C  0.49767658  0.53908967  0.06991434    -0.02700
Br213      Br  0.48550410  0.59587864  0.06664390    -0.01200
Br214      Br  0.38810828  0.48079457  0.07120380    -0.01300
Br215      Br  0.62324101  0.51383619  0.07706793    -0.01300
Br216      Br  0.52384909  0.39808409  0.08770992    -0.01200
C217        C  0.38558838  0.19786319  0.12940946    -0.02400
C218        C  0.33963963  0.19773850  0.11963539     0.07300
C219        C  0.29421990  0.16024303  0.14150958    -0.02500
C220        C  0.29479026  0.12339895  0.17278424    -0.02500
C221        C  0.34087878  0.12443114  0.18366610     0.07500
C222        C  0.38625897  0.16179208  0.16183065    -0.02700
Br223      Br  0.44924916  0.16250376  0.17461480    -0.01200
Br224      Br  0.44832171  0.24840697  0.09991349    -0.01300
Br225      Br  0.23228575  0.07209160  0.20191644    -0.01300
Br226      Br  0.23039647  0.15759327  0.12718383    -0.01200
C227        C  0.75044663  0.88348741  0.66364703    -0.02400
C228        C  0.70610565  0.88006235  0.68493515     0.07300
C229        C  0.66186244  0.83153904  0.68841191    -0.02500
C230        C  0.66070379  0.78845262  0.66636350    -0.02500
C231        C  0.70333431  0.79314737  0.64051681     0.07500
C232        C  0.74856399  0.84052293  0.64032448    -0.02700
Br233      Br  0.80740022  0.84740926  0.60578206    -0.01200
Br234      Br  0.81514687  0.94595853  0.66895391    -0.01300
Br235      Br  0.60083177  0.72231677  0.67406407    -0.01300
Br236      Br  0.60184011  0.82202921  0.72310068    -0.01200
C237        C  0.70290484  0.69881789  0.78503567    -0.02400
C238        C  0.67147796  0.65168275  0.76044492     0.07300
C239        C  0.63029597  0.61265830  0.78608286    -0.02500
C240        C  0.62118414  0.62035891  0.83629075    -0.02500
C241        C  0.65367383  0.66700757  0.86150680     0.07500
C242        C  0.69424404  0.70649556  0.83532318    -0.02700
Br243      Br  0.74019496  0.77083423  0.86810574    -0.01200
Br244      Br  0.75700141  0.75415725  0.74943252    -0.01300
Br245      Br  0.56270849  0.56741807  0.86973359    -0.01300
Br246      Br  0.58748576  0.54772121  0.75298635    -0.01200
C247        C  0.25444914  0.13651153  0.64280602    -0.02400
C248        C  0.30015223  0.18351693  0.64383714     0.07300
C249        C  0.34515130  0.18616013  0.66229127    -0.02500
C250        C  0.34542354  0.14148426  0.67557675    -0.02500
C251        C  0.29964898  0.09395999  0.67403504     0.07500
C252        C  0.25386016  0.09221287  0.65917171    -0.02700
Br253      Br  0.18925533  0.02998685  0.66333365    -0.01200
Br254      Br  0.19264337  0.13213697  0.61721896    -0.01300
Br255      Br  0.40995600  0.14675209  0.69291082    -0.01300
Br256      Br  0.40608542  0.25147609  0.67326925    -0.01200
C257        C  0.28773916  0.28872072  0.80163143    -0.02400
C258        C  0.32618726  0.32974185  0.77523423     0.07300
C259        C  0.37143419  0.36520004  0.80039281    -0.02500
C260        C  0.37841889  0.35940445  0.85151788    -0.02500
C261        C  0.33981358  0.31870277  0.87801597     0.07500
C262        C  0.29440661  0.28341771  0.85292145    -0.02700
Br263      Br  0.23992271  0.22887562  0.88898738    -0.01200
Br264      Br  0.22657990  0.23815353  0.76739920    -0.01300
Br265      Br  0.44188899  0.40603728  0.88471393    -0.01300
Br266      Br  0.42295650  0.42326828  0.76542074    -0.01200
C267        C  0.49025829  0.43786625  0.56785680    -0.02400
C268        C  0.44835054  0.44512174  0.57779432     0.07300
C269        C  0.45628064  0.49521451  0.58112172    -0.02500
C270        C  0.50583983  0.53737049  0.57973653    -0.02500
C271        C  0.54804040  0.53004267  0.57285035     0.07500
C272        C  0.53974571  0.48024919  0.56501166    -0.02700
Br273      Br  0.59645536  0.46999904  0.55036769    -0.01200
Br274      Br  0.48167981  0.37029234  0.56158237    -0.01300
Br275      Br  0.51523759  0.60459215  0.59253088    -0.01300
Br276      Br  0.39916091  0.50677350  0.58704837    -0.01200
C277        C  0.15581818  0.80017871  0.32613153    -0.02400
C278        C  0.11001913  0.80146552  0.33210573     0.07300
C279        C  0.10948245  0.84689221  0.32172510    -0.02500
C280        C  0.15319724  0.88947206  0.30315079    -0.02500
C281        C  0.19856818  0.88775769  0.29616880     0.07500
C282        C  0.19978166  0.84308234  0.30864080    -0.02700
Br283      Br  0.26244577  0.84065820  0.30519166    -0.01200
Br284      Br  0.15960513  0.73964566  0.34061867    -0.01300
Br285      Br  0.14970906  0.94949612  0.28593102    -0.01300
Br286      Br  0.05001292  0.85260162  0.33618364    -0.01200
C287        C  0.82810757  0.61286593  0.45669185    -0.02400
C288        C  0.86764567  0.65980734  0.43946522     0.07300
C289        C  0.87052305  0.70557635  0.45665500    -0.02500
C290        C  0.83467443  0.70441544  0.49103020    -0.02500
C291        C  0.79566318  0.65750555  0.50880420     0.07500
C292        C  0.79255014  0.61177633  0.49140776    -0.02700
Br293      Br  0.73855656  0.54731283  0.51419484    -0.01200
Br294      Br  0.82365929  0.54976186  0.43470645    -0.01300
Br295      Br  0.84082445  0.76754845  0.51569702    -0.01300
Br296      Br  0.92254241  0.77010809  0.43169502    -0.01200
C297        C  0.80062419  0.13346002  0.33124242    -0.02400
C298        C  0.80444375  0.09187308  0.31172950     0.07300
C299        C  0.85181493  0.09370909  0.31214769    -0.02500
C300        C  0.89532553  0.13714406  0.33140746    -0.02500
C301        C  0.89226800  0.18022539  0.34805167     0.07500
C302        C  0.84443806  0.17799090  0.34776743    -0.02700
Br303      Br  0.83764109  0.23631147  0.36655045    -0.01200
Br304      Br  0.73488188  0.12895553  0.33868315    -0.01300
Br305      Br  0.95837953  0.13590899  0.33644387    -0.01300
Br306      Br  0.85782498  0.03765300  0.28423671    -0.01200
C307        C  0.04774741  0.49903005  0.40057186    -0.02400
C308        C  0.00520755  0.44963766  0.39519763     0.07300
C309        C  0.95617323  0.44395409  0.38991855    -0.02500
C310        C  0.95023185  0.48715103  0.38676957    -0.02500
C311        C  0.99315818  0.53666307  0.38856358     0.07500
C312        C  0.04184751  0.54232959  0.39750832    -0.02700
Br313      Br  0.10178250  0.60892485  0.40255086    -0.01200
Br314      Br  0.11467806  0.50779150  0.41221518    -0.01300
Br315      Br  0.88241671  0.47761569  0.38047503    -0.01300
Br316      Br  0.89658329  0.37726407  0.38264944    -0.01200
C317        C  0.12123880  0.27475237  0.47961219    -0.02400
C318        C  0.12476650  0.32110072  0.46542777     0.07300
C319        C  0.16378399  0.36729144  0.48605893    -0.02500
C320        C  0.20064192  0.36753469  0.51866779    -0.02500
C321        C  0.19820447  0.32128801  0.53174842     0.07500
C322        C  0.15788669  0.27481434  0.51249076    -0.02700
Br323      Br  0.15139655  0.21083744  0.53260472    -0.01200
Br324      Br  0.06646965  0.21106873  0.45339982    -0.01300
Br325      Br  0.25592311  0.43182646  0.54291158    -0.01300
Br326      Br  0.16489384  0.43013680  0.47193578    -0.01200
C327        C  0.99627317  0.35977914  0.13618907    -0.02400
C328        C  0.98829283  0.31595368  0.10895701     0.07300
C329        C  0.99286347  0.27742280  0.13369121    -0.02500
C330        C  0.00446474  0.28229093  0.18527357    -0.02500
C331        C  0.01138599  0.32557430  0.21263851     0.07500
C332        C  0.00716374  0.36425695  0.18796661    -0.02700
Br333      Br  0.01753586  0.42420083  0.22492737    -0.01200
Br334      Br  0.99091626  0.41332646  0.10315807    -0.01300
Br335      Br  0.00826734  0.22804283  0.21863597    -0.01300
Br336      Br  0.98598648  0.21877648  0.09683978    -0.01200
C337        C  0.10910911  0.24976662  0.98438878    -0.02400
C338        C  0.10758221  0.29532908  0.97923571     0.07300
C339        C  0.15055416  0.34216348  0.99364548    -0.02500
C340        C  0.19589563  0.34383715  0.00898377    -0.02500
C341        C  0.19749825  0.29812734  0.01456968     0.07500
C342        C  0.15307044  0.25099934  0.00372427    -0.02700
Br343      Br  0.15066373  0.18727641  0.01729347    -0.01200
Br344      Br  0.05186732  0.18535554  0.96287003    -0.01300
Br345      Br  0.25600012  0.40986095  0.01847811    -0.01300
Br346      Br  0.14691751  0.40433854  0.99624159    -0.01200
C347        C  0.87144020  0.14802266  0.84703514    -0.02400
C348        C  0.86721999  0.19065735  0.86218177     0.07300
C349        C  0.82676216  0.19631534  0.84316736    -0.02500
C350        C  0.79094093  0.15971259  0.80928972    -0.02500
C351        C  0.79551510  0.11738943  0.79377326     0.07500
C352        C  0.83583742  0.11162050  0.81294731    -0.02700
Br353      Br  0.84386184  0.05488533  0.79101968    -0.01200
Br354      Br  0.92501592  0.13822545  0.87440239    -0.01300
Br355      Br  0.73423644  0.16651764  0.78603831    -0.01300
Br356      Br  0.82155710  0.25550610  0.86126871    -0.01200
C357        C  0.83978142  0.65208659  0.93259709    -0.02400
C358        C  0.88872064  0.69511164  0.94117146     0.07300
C359        C  0.89235756  0.74003835  0.96269663    -0.02500
C360        C  0.84880951  0.73953346  0.98162000    -0.02500
C361        C  0.80110602  0.69500797  0.97736857     0.07500
C362        C  0.79628972  0.65242193  0.95031194    -0.02700
Br363      Br  0.72951977  0.59500087  0.93509423    -0.01200
Br364      Br  0.83017267  0.59139251  0.89757674    -0.01300
Br365      Br  0.85496495  0.79930035  0.01548059    -0.01300
Br366      Br  0.95608011  0.80367869  0.96457166    -0.01200
C367        C  0.99846317  0.70317124  0.11524624    -0.02400
C368        C  0.00665903  0.66700070  0.08918496     0.07300
C369        C  0.00519322  0.62612460  0.11537300    -0.02500
C370        C  0.99579542  0.62161795  0.16726710    -0.02500
C371        C  0.98674139  0.65738335  0.19316212     0.07500
C372        C  0.98830282  0.69827796  0.16690374    -0.02700
Br373      Br  0.97952253  0.74969265  0.20194395    -0.01200
Br374      Br  0.99932025  0.75882518  0.08003099    -0.01300
Br375      Br  0.99423115  0.56557202  0.20257872    -0.01300
Br376      Br  0.01808757  0.57730095  0.08057777    -0.01200
C377        C  0.04279265  0.52876075  0.89606748    -0.02400
C378        C  0.00058242  0.53634486  0.90009067     0.07300
C379        C  0.95126822  0.49368257  0.90384408    -0.02500
C380        C  0.94494057  0.44457108  0.90859174    -0.02500
C381        C  0.98769157  0.43748247  0.90866135     0.07500
C382        C  0.03649502  0.47960909  0.90016185    -0.02700
Br383      Br  0.09615861  0.47187909  0.89855517    -0.01200
Br384      Br  0.10979026  0.58586351  0.88516043    -0.01300
Br385      Br  0.87716160  0.38729010  0.91576812    -0.01300
Br386      Br  0.89200312  0.50201836  0.90673795    -0.01200
C387        C  0.12136694  0.82635716  0.82587013    -0.02400
C388        C  0.12654981  0.78548021  0.84382752     0.07300
C389        C  0.16801275  0.77999004  0.82809982    -0.02500
C390        C  0.20373095  0.81474907  0.79441620    -0.02500
C391        C  0.19860768  0.85565218  0.77648858     0.07500
C392        C  0.15732999  0.86138159  0.79253386    -0.02700
Br393      Br  0.14857709  0.91597735  0.76705147    -0.01200
Br394      Br  0.06583229  0.83554634  0.84821172    -0.01300
Br395      Br  0.26076780  0.80716498  0.77435030    -0.01300
Br396      Br  0.17479224  0.72342855  0.85084789    -0.01200
loop_ 
_geom_bond_atom_site_label_1 
_geom_bond_atom_site_label_2 
_geom_bond_distance 
_geom_bond_site_symmetry_2 
_ccdc_geom_bond_type 
In1           O3   2.230   1_455  S
In1           O4   2.244   1_455  S
In1          O12   2.252       .  S
In1           O6   2.270       .  S
In1           O8   2.259   1_556  S
In1           O9   2.250   1_455  S
In1          O10   2.243   1_456  S
In1          O13   2.237       .  S
C2            O8   1.266       .  A
C2           O10   1.260   1_455  A
C2          C368   1.482       .  S
O3           C11   1.259       .  A
O4           C11   1.262       .  A
C5           O12   1.258       .  A
C5            O6   1.262       .  A
C5          C388   1.486       .  S
C7            O9   1.261   1_455  A
C7           O13   1.260       .  A
C7          C378   1.483       .  S
C11         C358   1.491       .  S
In14         O16   2.232   1_655  S
In14         O17   2.238   1_655  S
In14         O25   2.246       .  S
In14         O19   2.264       .  S
In14         O21   2.251   1_556  S
In14         O22   2.243   1_655  S
In14         O23   2.231   1_656  S
In14         O26   2.233       .  S
C15          O21   1.267       .  A
C15          O23   1.260   1_655  A
C15         C328   1.480       .  S
O16          C24   1.260       .  A
O17          C24   1.264       .  A
C18          O25   1.259       .  A
C18          O19   1.262       .  A
C18         C348   1.484       .  S
C20          O22   1.262   1_655  A
C20          O26   1.261       .  A
C20         C381   1.484       .  S
C24         C338   1.482       .  S
In27         O29   2.226   1_455  S
In27         O30   2.238   1_455  S
In27         O38   2.253       .  S
In27         O32   2.266       .  S
In27         O34   2.258       .  S
In27         O35   2.248   1_455  S
In27         O36   2.225   1_455  S
In27         O39   2.236       .  S
C28          O34   1.268       .  A
C28          O36   1.260   1_455  A
C28         C331   1.478       .  S
O29          C37   1.259       .  A
O30          C37   1.263       .  A
C31          O38   1.258       .  A
C31          O32   1.262       .  A
C31         C318   1.483       .  S
C33          O35   1.262   1_455  A
C33          O39   1.261       .  A
C33         C308   1.486       .  S
C37         C301   1.484       .  S
In40         O42   2.241   1_655  S
In40         O43   2.241   1_655  S
In40         O51   2.259       .  S
In40         O45   2.274       .  S
In40         O47   2.261       .  S
In40         O48   2.262   1_655  S
In40         O49   2.230   1_655  S
In40         O52   2.238       .  S
C41          O47   1.267       .  A
C41          O49   1.259   1_655  A
C41         C371   1.482       .  S
O42          C50   1.261       .  A
O43          C50   1.263       .  A
C44          O51   1.259       .  A
C44          O45   1.261       .  A
C44         C288   1.490       .  S
C46          O48   1.262   1_655  A
C46          O52   1.260       .  A
C46         C311   1.490       .  S
C50         C278   1.489       .  S
In53         O55   2.234       .  S
In53         O56   2.235       .  S
In53         O64   2.252       .  S
In53         O58   2.264       .  S
In53         O60   2.254       .  S
In53         O61   2.256       .  S
In53         O62   2.222       .  S
In53         O65   2.229       .  S
C54          O60   1.266       .  A
C54          O62   1.258       .  A
C54         C258   1.476       .  S
O55          C63   1.260       .  A
O56          C63   1.262       .  A
C57          O64   1.260       .  A
C57          O58   1.262       .  A
C57         C321   1.488       .  S
C59          O61   1.262       .  A
C59          O65   1.261       .  A
C59         C268   1.488       .  S
C63         C248   1.477       .  S
In66         O68   2.228       .  S
In66         O69   2.237       .  S
In66         O77   2.251       .  S
In66         O71   2.265       .  S
In66         O73   2.267       .  S
In66         O74   2.241       .  S
In66         O75   2.225       .  S
In66         O78   2.235       .  S
C67          O73   1.268       .  A
C67          O75   1.257       .  A
C67         C238   1.477       .  S
O68          C76   1.260       .  A
O69          C76   1.264       .  A
C70          O77   1.261       .  A
C70          O71   1.265       .  A
C70         C291   1.488       .  S
C72          O74   1.264       .  A
C72          O78   1.264       .  A
C72         C271   1.485       .  S
C76         C231   1.477       .  S
In79         O81   2.234       .  S
In79         O82   2.255       .  S
In79         O90   2.249       .  S
In79         O84   2.260       .  S
In79         O86   2.253   1_554  S
In79         O87   2.244       .  S
In79         O88   2.233   1_554  S
In79         O91   2.244       .  S
C80          O86   1.265       .  A
C80          O88   1.260       .  A
C80         C261   1.476       .  S
O81          C89   1.259       .  A
O82          C89   1.262       .  A
C83          O90   1.259       .  A
C83          O84   1.261       .  A
C83         C218   1.486       .  S
C85          O87   1.261       .  A
C85          O91   1.261       .  A
C85         C208   1.481       .  S
C89         C341   1.491       .  S
In92         O94   2.227   1_554  S
In92         O95   2.229       .  S
In92        O103   2.241       .  S
In92         O97   2.252       .  S
In92         O99   2.256   1_554  S
In92        O100   2.249       .  S
In92        O101   2.217   1_554  S
In92        O104   2.218       .  S
C93          O99   1.267       .  A
C93         O101   1.258       .  A
C93         C241   1.482       .  S
O94         C102   1.260       .  A
O95         C102   1.264   1_554  A
C96         O103   1.260       .  A
C96          O97   1.262       .  A
C96         C201   1.478       .  S
C98         O100   1.263       .  A
C98         O104   1.261       .  A
C98         C211   1.484       .  S
C102        C361   1.473       .  S
In105       O107   2.226   1_565  S
In105       O108   2.241   1_565  S
In105       O116   2.250       .  S
In105       O110   2.271       .  S
In105       O112   2.263       .  S
In105       O113   2.245       .  S
In105       O114   2.230       .  S
In105       O117   2.237       .  S
C106        O112   1.268       .  A
C106        O114   1.260       .  A
C106        C178   1.485       .  S
O107        C115   1.260       .  A
O108        C115   1.263       .  A
C109        O116   1.258       .  A
C109        O110   1.263       .  A
C109        C391   1.487       .  S
C111        O113   1.261       .  A
C111        O117   1.260       .  A
C111        C188   1.487       .  S
C115        C251   1.486       .  S
In118       O120   2.221   1_545  S
In118       O121   2.233   1_545  S
In118       O129   2.244       .  S
In118       O123   2.266       .  S
In118       O125   2.265       .  S
In118       O126   2.244   1_545  S
In118       O127   2.225   1_545  S
In118       O130   2.236       .  S
C119        O125   1.267       .  A
C119        O127   1.259   1_545  A
C119        C168   1.478   1_545  S
O120        C128   1.260       .  A
O121        C128   1.262       .  A
C122        O129   1.258       .  A
C122        O123   1.262       .  A
C122        C351   1.483       .  S
C124        O126   1.261       .  A
C124        O130   1.261   1_565  A
C124        C191   1.482       .  S
C128        C228   1.488       .  S
In131       O133   2.233   1_545  S
In131       O134   2.242   1_545  S
In131       O142   2.249       .  S
In131       O136   2.270       .  S
In131       O138   2.263       .  S
In131       O139   2.252   1_545  S
In131       O140   2.240   1_545  S
In131       O143   2.223       .  S
C132        O138   1.266       .  A
C132        O140   1.259   1_545  A
C132        C181   1.485       .  S
O133        C141   1.260       .  A
O134        C141   1.264       .  A
C135        O142   1.259       .  A
C135        O136   1.262       .  A
C135        C221   1.484       .  S
C137        O139   1.262   1_545  A
C137        O143   1.261       .  A
C137        C161   1.484   1_545  S
C141        C281   1.486       .  S
In144       O146   2.232   1_565  S
In144       O147   2.226   1_565  S
In144       O155   2.234       .  S
In144       O149   2.253       .  S
In144       O151   2.256       .  S
In144       O152   2.231   1_565  S
In144       O153   2.230       .  S
In144       O156   2.241       .  S
C145        O151   1.266       .  A
C145        O153   1.260       .  A
C145        C171   1.482       .  S
O146        C154   1.260       .  A
O147        C154   1.261       .  A
C148        O155   1.258       .  A
C148        O149   1.262       .  A
C148        C198   1.481       .  S
C150        O152   1.259   1_565  A
C150        O156   1.263       .  A
C150        C158   1.482       .  S
C154        C298   1.474       .  S
C157        C158   1.414   1_545  A
C157        C162   1.406       .  A
C157       Br164   1.934       .  S
C158        C159   1.411       .  A
C159        C160   1.409       .  A
C159       Br166   1.933       .  S
C160        C161   1.416       .  A
C160       Br165   1.932       .  S
C161        C162   1.412   1_565  A
C162       Br163   1.933       .  S
C167        C168   1.410       .  A
C167        C172   1.408       .  A
C167       Br174   1.933   1_565  S
C168        C169   1.411       .  A
C169        C170   1.410       .  A
C169       Br176   1.931       .  S
C170        C171   1.415       .  A
C170       Br175   1.934       .  S
C171        C172   1.412       .  A
C172       Br173   1.931       .  S
C177        C178   1.412       .  A
C177        C182   1.410       .  A
C177       Br184   1.932       .  S
C178        C179   1.413       .  A
C179        C180   1.412   1_565  A
C179       Br186   1.933       .  S
C180        C181   1.413       .  A
C180       Br185   1.932       .  S
C181        C182   1.413   1_545  A
C182       Br183   1.932       .  S
C187        C188   1.417   1_545  A
C187        C192   1.408       .  A
C187       Br194   1.932       .  S
C188        C189   1.414       .  A
C189        C190   1.409       .  A
C189       Br196   1.934       .  S
C190        C191   1.414       .  A
C190       Br195   1.934       .  S
C191        C192   1.410   1_565  A
C192       Br193   1.933       .  S
C197        C198   1.412       .  A
C197        C202   1.407       .  A
C197       Br204   1.933       .  S
C198        C199   1.414       .  A
C199        C200   1.408       .  A
C199       Br206   1.932       .  S
C200        C201   1.408       .  A
C200       Br205   1.931       .  S
C201        C202   1.409       .  A
C202       Br203   1.925       .  S
C207        C208   1.411       .  A
C207        C212   1.404       .  A
C207       Br214   1.932       .  S
C208        C209   1.411       .  A
C209        C210   1.411       .  A
C209       Br216   1.930       .  S
C210        C211   1.416       .  A
C210       Br215   1.934       .  S
C211        C212   1.413       .  A
C212       Br213   1.931       .  S
C217        C218   1.413       .  A
C217        C222   1.411       .  A
C217       Br224   1.932       .  S
C218        C219   1.413       .  A
C219        C220   1.410       .  A
C219       Br226   1.931       .  S
C220        C221   1.410       .  A
C220       Br225   1.931       .  S
C221        C222   1.411       .  A
C222       Br223   1.927       .  S
C227        C228   1.417       .  A
C227        C232   1.408       .  A
C227       Br234   1.935       .  S
C228        C229   1.418       .  A
C229        C230   1.406       .  A
C229       Br236   1.936       .  S
C230        C231   1.412       .  A
C230       Br235   1.935       .  S
C231        C232   1.408       .  A
C232       Br233   1.929       .  S
C237        C238   1.410       .  A
C237        C242   1.407       .  A
C237       Br244   1.931       .  S
C238        C239   1.410       .  A
C239        C240   1.409       .  A
C239       Br246   1.931       .  S
C240        C241   1.414       .  A
C240       Br245   1.934       .  S
C241        C242   1.415       .  A
C242       Br243   1.934       .  S
C247        C248   1.408       .  A
C247        C252   1.408       .  A
C247       Br254   1.932       .  S
C248        C249   1.412       .  A
C249        C250   1.407       .  A
C249       Br256   1.937       .  S
C250        C251   1.417       .  A
C250       Br255   1.935       .  S
C251        C252   1.417       .  A
C252       Br253   1.933       .  S
C257        C258   1.411       .  A
C257        C262   1.407       .  A
C257       Br264   1.933       .  S
C258        C259   1.411       .  A
C259        C260   1.408       .  A
C259       Br266   1.932       .  S
C260        C261   1.410       .  A
C260       Br265   1.930       .  S
C261        C262   1.412       .  A
C262       Br263   1.932       .  S
C267        C268   1.417       .  A
C267        C272   1.411       .  A
C267       Br274   1.933       .  S
C268        C269   1.413       .  A
C269        C270   1.408       .  A
C269       Br276   1.935       .  S
C270        C271   1.414       .  A
C270       Br275   1.933       .  S
C271        C272   1.411       .  A
C272       Br273   1.932       .  S
C277        C278   1.417       .  A
C277        C282   1.408       .  A
C277       Br284   1.936       .  S
C278        C279   1.414       .  A
C279        C280   1.411       .  A
C279       Br286   1.933       .  S
C280        C281   1.414       .  A
C280       Br285   1.933       .  S
C281        C282   1.415       .  A
C282       Br283   1.938       .  S
C287        C288   1.413       .  A
C287        C292   1.412       .  A
C287       Br294   1.928       .  S
C288        C289   1.413       .  A
C289        C290   1.412       .  A
C289       Br296   1.932       .  S
C290        C291   1.413       .  A
C290       Br295   1.930       .  S
C291        C292   1.410       .  A
C292       Br293   1.930       .  S
C297        C298   1.412       .  A
C297        C302   1.404       .  A
C297       Br304   1.939       .  S
C298        C299   1.408       .  A
C299        C300   1.408       .  A
C299       Br306   1.932       .  S
C300        C301   1.417       .  A
C300       Br305   1.933       .  S
C301        C302   1.417       .  A
C302       Br303   1.934       .  S
C307        C308   1.412       .  A
C307        C312   1.411       .  A
C307       Br314   1.933       .  S
C308        C309   1.414   1_455  A
C309        C310   1.409       .  A
C309       Br316   1.932       .  S
C310        C311   1.414       .  A
C310       Br315   1.934       .  S
C311        C312   1.417   1_655  A
C312       Br313   1.931       .  S
C317        C318   1.410       .  A
C317        C322   1.412       .  A
C317       Br324   1.931       .  S
C318        C319   1.408       .  A
C319        C320   1.410       .  A
C319       Br326   1.928       .  S
C320        C321   1.413       .  A
C320       Br325   1.930       .  S
C321        C322   1.414       .  A
C322       Br323   1.931       .  S
C327        C328   1.413       .  A
C327        C332   1.409   1_655  A
C327       Br334   1.932       .  S
C328        C329   1.413       .  A
C329        C330   1.408   1_655  A
C329       Br336   1.933       .  S
C330        C331   1.410       .  A
C330       Br335   1.932       .  S
C331        C332   1.411       .  A
C332       Br333   1.933       .  S
C337        C338   1.411       .  A
C337        C342   1.409   1_556  A
C337       Br344   1.933       .  S
C338        C339   1.413       .  A
C339        C340   1.408   1_556  A
C339       Br346   1.938       .  S
C340        C341   1.418       .  A
C340       Br345   1.933       .  S
C341        C342   1.416       .  A
C342       Br343   1.933       .  S
C347        C348   1.411       .  A
C347        C352   1.409       .  A
C347       Br354   1.932       .  S
C348        C349   1.413       .  A
C349        C350   1.411       .  A
C349       Br356   1.929       .  S
C350        C351   1.411       .  A
C350       Br355   1.930       .  S
C351        C352   1.412       .  A
C352       Br353   1.932       .  S
C357        C358   1.420       .  A
C357        C362   1.406       .  A
C357       Br364   1.935       .  S
C358        C359   1.420       .  A
C359        C360   1.408       .  A
C359       Br366   1.934       .  S
C360        C361   1.406       .  A
C360       Br365   1.933   1_556  S
C361        C362   1.410       .  A
C362       Br363   1.938       .  S
C367        C368   1.411   1_655  A
C367        C372   1.409       .  A
C367       Br374   1.930       .  S
C368        C369   1.412       .  A
C369        C370   1.411   1_455  A
C369       Br376   1.932       .  S
C370        C371   1.413       .  A
C370       Br375   1.933       .  S
C371        C372   1.412       .  A
C372       Br373   1.932       .  S
C377        C378   1.411       .  A
C377        C382   1.408       .  A
C377       Br384   1.930       .  S
C378        C379   1.413   1_455  A
C379        C380   1.408       .  A
C379       Br386   1.935       .  S
C380        C381   1.414       .  A
C380       Br385   1.932       .  S
C381        C382   1.415   1_655  A
C382       Br383   1.935       .  S
C387        C388   1.412       .  A
C387        C392   1.412       .  A
C387       Br394   1.932       .  S
C388        C389   1.411       .  A
C389        C390   1.412       .  A
C389       Br396   1.928       .  S
C390        C391   1.412       .  A
C390       Br395   1.929       .  S
C391        C392   1.412       .  A
C392       Br393   1.931       .  S
