geometry optimzed in LAMMPS
_audit_creation_date              2020-12-01 
_audit_creation_method            'lammps2cif' 
_symmetry_space_group_name_H-M    'P1' 
_symmetry_Int_Tables_number       1 
_symmetry_cell_setting            triclinic 
loop_ 
_symmetry_equiv_pos_as_xyz 
  x,y,z 
_cell_length_a                    49.66851222 
_cell_length_b                    49.49524954853094 
_cell_length_c                    29.350397984974872 
_cell_angle_alpha                 90.12957569307281 
_cell_angle_beta                  90.14069373024351 
_cell_angle_gamma                 89.735124104365 
loop_ 
_atom_site_label 
_atom_site_type_symbol 
_atom_site_fract_x 
_atom_site_fract_y 
_atom_site_fract_z 
_atom_site_charge 
O1          O  0.52779776  0.70313309  0.98611411    -0.84900
O2          O  0.56251941  0.73686275  0.03191487    -0.82000
C3          C  0.57000398  0.71883109  0.05953710     0.98500
O4          O  0.58825436  0.70235197  0.04739237    -0.82000
O5          O  0.61789364  0.66846717  0.98960615    -0.84700
C6          C  0.60279448  0.64832716  0.98356027     1.03000
O7          O  0.58034117  0.65112916  0.96422575    -0.77400
O8          O  0.53537544  0.67578137  0.92857715    -0.77600
C9          C  0.52084820  0.68336692  0.96161427     1.03000
O10         O  0.53892382  0.72980890  0.90244941    -0.84900
O11         O  0.57814263  0.76148215  0.94869557    -0.82000
C12         C  0.59834536  0.76667291  0.97364309     0.98500
O13         O  0.60891791  0.74838770  0.99796215    -0.82000
O14         O  0.63186343  0.71366997  0.93437929    -0.84600
C15         C  0.63159675  0.69684502  0.90177653     1.03000
O16         O  0.61343713  0.67907865  0.89892404    -0.77500
O17         O  0.56966722  0.70574524  0.86836597    -0.77600
C18         C  0.54909753  0.72046349  0.86620938     1.03000
Cr19       Cr  0.55385852  0.73106618  0.96629110     1.93700
Cr20       Cr  0.60950763  0.70815533  0.99027966     1.93200
Cr21       Cr  0.57499797  0.67999489  0.91820817     1.39100
O22         O  0.57949573  0.70645541  0.95784913    -1.22700
O23         O  0.73054300  0.49386854  0.59041348    -0.84900
O24         O  0.74956309  0.52077872  0.51591597    -0.82000
C25         C  0.75241544  0.53927775  0.48696491     0.98500
O26         O  0.75180960  0.56403347  0.49912745    -0.82000
O27         O  0.70020424  0.57924864  0.52406040    -0.84700
C28         C  0.67833538  0.57862454  0.54562087     1.03000
O29         O  0.67745189  0.56860320  0.58500358    -0.77400
O30         O  0.69204172  0.51447628  0.58106460    -0.77600
C31         C  0.70554587  0.49283896  0.58165085     1.03000
O32         O  0.76456574  0.52644627  0.64780035    -0.84900
O33         O  0.78832795  0.54924159  0.56885275    -0.82000
C34         C  0.79158736  0.57440659  0.57453759     0.98500
O35         O  0.77142372  0.58916857  0.58262401    -0.82000
O36         O  0.71939324  0.60519916  0.60594949    -0.84600
C37         C  0.71300930  0.59960918  0.64687245     1.03000
O38         O  0.71240668  0.57542399  0.66018185    -0.77500
O39         O  0.72191581  0.52097451  0.66414880    -0.77600
C40         C  0.74644831  0.51939918  0.67554210     1.03000
Cr41       Cr  0.75645484  0.52487020  0.58133013     1.93700
Cr42       Cr  0.73557992  0.58188062  0.55544527     1.93200
Cr43       Cr  0.70323413  0.54524219  0.61964374     1.39100
O44         O  0.73183985  0.55094819  0.58543676    -1.22700
O45         O  0.54395381  0.25680826  0.53983620    -0.84900
O46         O  0.51539106  0.27751666  0.46923378    -0.82000
C47         C  0.51821550  0.30269074  0.47645714     0.98500
O48         O  0.54082154  0.31338576  0.46984277    -0.82000
O49         O  0.59491017  0.32083352  0.45433940    -0.84700
C50         C  0.60546488  0.32126807  0.49338909     1.03000
O51         O  0.60456723  0.30035309  0.51755529    -0.77400
O52         O  0.58746860  0.25171947  0.55136304    -0.77600
C53         C  0.56366010  0.25459583  0.56659954     1.03000
O54         O  0.56533661  0.21351873  0.48629550    -0.84900
O55         O  0.53928717  0.23760375  0.40897755    -0.82000
C56         C  0.53172627  0.25586237  0.38152675     0.98500
O57         O  0.53754133  0.28025622  0.38969453    -0.82000
O58         O  0.59283206  0.28228528  0.38338836    -0.84600
C59         C  0.61735894  0.27897580  0.39339643     1.03000
O60         O  0.62437936  0.27486584  0.43465577    -0.77500
O61         O  0.60578815  0.22636105  0.46731242    -0.77600
C62         C  0.58992537  0.20790356  0.47892022     1.03000
Cr63       Cr  0.54338294  0.24772652  0.47482268     1.93700
Cr64       Cr  0.56679774  0.29692598  0.42730994     1.93200
Cr65       Cr  0.60300279  0.26362155  0.49054224     1.39100
O66         O  0.57130384  0.26909322  0.46406624    -1.22700
O67         O  0.74843912  0.45229004  0.01416384    -0.84900
O68         O  0.72690002  0.47923641  0.08507991    -0.82000
C69         C  0.70180451  0.47817686  0.07628246     0.98500
O70         O  0.68920651  0.45638615  0.08158662    -0.82000
O71         O  0.67899576  0.40213396  0.08774760    -0.84700
C72         C  0.67886145  0.39482531  0.04663909     1.03000
O73         O  0.70018434  0.39594064  0.02367412    -0.77400
O74         O  0.75203876  0.40912872  0.99814522    -0.77600
C75         C  0.75220588  0.43374162  0.98563032     1.03000
O76         O  0.78760786  0.42518878  0.07016448    -0.84900
O77         O  0.76301791  0.44970128  0.14621985    -0.82000
C78         C  0.74482171  0.45655425  0.17396635     0.98500
O79         O  0.72042676  0.45404209  0.16280855    -0.86800
O80         O  0.71631732  0.39858989  0.16066281    -0.84600
C81         C  0.71462172  0.37453394  0.14693704     1.03000
O82         O  0.71928289  0.36882237  0.10527560    -0.77500
O83         O  0.77111799  0.38480333  0.08201201    -0.77600
C84         C  0.79110683  0.39997929  0.07616819     1.03000
Cr85       Cr  0.75494098  0.44946194  0.07965313     1.93700
Cr86       Cr  0.70342595  0.42746358  0.12052896     1.93200
Cr87       Cr  0.73551012  0.39202453  0.05462070     1.39100
O88         O  0.73151736  0.42287878  0.08478165    -1.22700
O89         O  0.50335395  0.27658652  0.96626520    -0.84900
O90         O  0.47313764  0.26085951  0.03835103    -0.82000
C91         C  0.45341369  0.26022832  0.06517893     0.98500
O92         O  0.42941874  0.26029845  0.04984564    -0.82000
O93         O  0.41850399  0.31113426  0.01814378    -0.84700
C94         C  0.41989005  0.33212016  0.99440554     1.03000
O95         O  0.43037176  0.33138001  0.95533840    -0.77400
O96         O  0.48352874  0.31627158  0.96664568    -0.77600
C97         C  0.50438537  0.30199099  0.97149500     1.03000
O98         O  0.47334357  0.24104940  0.90739952    -0.84900
O99         O  0.44562780  0.22121262  0.98568618    -0.82000
C100        C  0.42061696  0.21868329  0.97822420     0.98500
O101        O  0.40759233  0.23901530  0.96505596    -0.82000
O102        O  0.39451775  0.29012713  0.93506761    -0.84600
C103        C  0.40151964  0.29365267  0.89379549     1.03000
O104        O  0.42600262  0.29361909  0.88266132    -0.77500
O105        O  0.48043848  0.28308394  0.88714826    -0.77600
C106        C  0.48259125  0.25803022  0.87930956     1.03000
Cr107      Cr  0.47173160  0.25163964  0.97321396     1.93700
Cr108      Cr  0.41501914  0.27516387  0.98979089     1.93200
Cr109      Cr  0.45451610  0.30392673  0.92599489     1.39100
O110        O  0.44689743  0.27679673  0.96291122    -1.22700
O111        O  0.28996756  0.48059517  0.55620507    -0.84900
O112        O  0.25699475  0.44541364  0.51013470    -0.82000
C113        C  0.27346756  0.43783889  0.47995574     0.98500
O114        O  0.29155952  0.42066852  0.49015037    -0.82000
O115        O  0.32919975  0.39272941  0.54395818    -0.84700
C116        C  0.34885356  0.40812097  0.55175443     1.03000
O117        O  0.34542120  0.43011577  0.57272489    -0.77400
O118        O  0.31871388  0.47334023  0.61179120    -0.77600
C119        C  0.30975007  0.48811229  0.58005511     1.03000
O120        O  0.26598408  0.46618882  0.64063229    -0.84900
O121        O  0.23543645  0.42618832  0.59378466    -0.82000
C122        C  0.23080935  0.40650576  0.56723782     0.98500
O123        O  0.24945108  0.39682886  0.54282506    -0.82000
O124        O  0.28753026  0.37447315  0.60243614    -0.84600
C125        C  0.30557358  0.37496657  0.63313935     1.03000
O126        O  0.32142300  0.39468018  0.63676469    -0.77500
O127        O  0.29217005  0.43623277  0.67201373    -0.77600
C128        C  0.27643708  0.45602449  0.67601987     1.03000
Cr129      Cr  0.26410857  0.45251890  0.57603865     1.93700
Cr130      Cr  0.28944202  0.39846286  0.54728299     1.93200
Cr131      Cr  0.31714689  0.43328402  0.62009368     1.39100
O132        O  0.29027569  0.42803760  0.58130706    -1.22700
O133        O  0.48026947  0.72279247  0.52589359    -0.84900
O134        O  0.50406680  0.69850877  0.45383078    -0.82000
C135        C  0.50354470  0.67398983  0.46658800     0.98500
O136        O  0.48148948  0.66142413  0.46853577    -0.82000
O137        O  0.42601930  0.65145494  0.46632729    -0.84700
C138        C  0.41755831  0.65423009  0.50651553     1.03000
O139        O  0.41989007  0.67653802  0.52654532    -0.77400
O140        O  0.43781998  0.72778146  0.54548388    -0.77600
C141        C  0.46272384  0.72728713  0.55580800     1.03000
O142        O  0.45258666  0.76121480  0.47110540    -0.84900
O143        O  0.47206501  0.73213920  0.39310466    -0.82000
C144        C  0.47808392  0.71226060  0.36778757     0.98500
O145        O  0.47658307  0.68858454  0.38341115    -0.82000
O146        O  0.42208098  0.68490669  0.38863945    -0.84600
C147        C  0.39851186  0.68984252  0.40206865     1.03000
O148        O  0.39354072  0.69517886  0.44364977    -0.77500
O149        O  0.41207960  0.74571367  0.46194274    -0.77600
C150        C  0.42741639  0.76543540  0.46821004     1.03000
Cr151      Cr  0.47503197  0.72716520  0.46045470     1.93700
Cr152      Cr  0.45131038  0.67378030  0.42945134     1.93200
Cr153      Cr  0.41819731  0.71079398  0.49206122     1.39100
O154        O  0.44800926  0.70399506  0.46098634    -1.22700
O155        O  0.27344411  0.53121887  0.01288595    -0.84900
O156        O  0.29570355  0.50492320  0.08426236    -0.82000
C157        C  0.32045296  0.50410883  0.07309237     0.98500
O158        O  0.33458274  0.52517370  0.07397332    -0.82000
O159        O  0.34919613  0.57885624  0.07838940    -0.84700
C160        C  0.34844584  0.58646538  0.03751739     1.03000
O161        O  0.32672791  0.58571703  0.01563422    -0.77400
O162        O  0.27440879  0.57396098  0.99285809    -0.77600
C163        C  0.27185238  0.54912706  0.98266250     1.03000
O164        O  0.23808588  0.56242626  0.06917967    -0.84900
O165        O  0.26393276  0.53867224  0.14607232    -0.82000
C166        C  0.28254439  0.53028778  0.17199939     0.98500
O167        O  0.30647819  0.53062365  0.15772008    -0.82000
O168        O  0.31440879  0.58559543  0.15367213    -0.84600
C169        C  0.31333808  0.60949364  0.13902090     1.03000
O170        O  0.30927132  0.61452276  0.09704127    -0.77500
O171        O  0.25760349  0.60147328  0.07532346    -0.77600
C172        C  0.23637100  0.58801795  0.07159615     1.03000
Cr173      Cr  0.26951062  0.53639955  0.07863974     1.93700
Cr174      Cr  0.32393012  0.55547076  0.11326187     1.93200
Cr175      Cr  0.29215944  0.59149443  0.04765704     1.39100
O176        O  0.29498790  0.56129927  0.07961189    -1.22700
O177        O  0.02353108  0.19865346  0.48122681    -0.84900
O178        O  0.05253964  0.22117269  0.55033358    -0.82000
C179        C  0.07231044  0.22542567  0.57629727     0.98500
O180        O  0.09631664  0.22479148  0.56110143    -0.82000
O181        O  0.11074115  0.17294560  0.53772196    -0.84700
C182        C  0.11050239  0.15061409  0.51721893     1.03000
O183        O  0.10036572  0.14895445  0.47782578    -0.77400
O184        O  0.04617413  0.16069701  0.48767867    -0.77600
C185        C  0.02432044  0.17362203  0.49060076     1.03000
O186        O  0.05093787  0.23282357  0.41671547    -0.84900
O187        O  0.07732719  0.25894209  0.49273066    -0.82000
C188        C  0.10226732  0.26178587  0.48528943     0.98500
O189        O  0.11559162  0.24183697  0.47157125    -0.82000
O190        O  0.13296445  0.19060631  0.45141412    -0.84600
C191        C  0.12567263  0.18511854  0.41084514     1.03000
O192        O  0.10111524  0.18381680  0.40070331    -0.77500
O193        O  0.04690561  0.18964426  0.40372875    -0.77600
C194        C  0.04320193  0.21372796  0.39095600     1.03000
Cr195      Cr  0.05324977  0.22624722  0.48411522     1.93700
Cr196      Cr  0.11153712  0.20733712  0.50355882     1.93200
Cr197      Cr  0.07405913  0.17298084  0.44521969     1.39100
O198        O  0.07967002  0.20217925  0.47807233    -1.22700
O199        O  0.22986653  0.99650436  0.09909194    -0.84900
O200        O  0.25191763  0.02088010  0.02635093    -0.82000
C201        C  0.25445819  0.03838872  0.99582442     0.98500
O202        O  0.25329434  0.06343356  0.00554993    -0.82000
O203        O  0.20165811  0.07731473  0.02960634    -0.84700
C204        C  0.18014993  0.07939385  0.05174845     1.03000
O205        O  0.18008164  0.07366224  0.09358878    -0.77400
O206        O  0.19160840  0.01880955  0.09158222    -0.77600
C207        C  0.20465986  0.99690353  0.09082971     1.03000
O208        O  0.26462302  0.02893094  0.15833847    -0.84900
O209        O  0.28979528  0.05067391  0.07995641    -0.82000
C210        C  0.29237785  0.07617082  0.08279769     0.98500
O211        O  0.27194247  0.09096576  0.08702758    -0.82000
O212        O  0.22123989  0.10707357  0.10959343    -0.84600
C213        C  0.21849821  0.10271527  0.15215960     1.03000
O214        O  0.21683503  0.07894100  0.16705904    -0.77500
O215        O  0.22195267  0.02388979  0.17282023    -0.77600
C216        C  0.24617616  0.02219159  0.18554901     1.03000
Cr217      Cr  0.25744405  0.02639815  0.09149171     1.93700
Cr218      Cr  0.23676616  0.08240960  0.06035371     1.93200
Cr219      Cr  0.20477937  0.04912156  0.12845703     1.39100
O220        O  0.23322360  0.05272711  0.09318577    -1.22700
O221        O  0.04089211  0.76137894  0.03864080    -0.84900
O222        O  0.01420872  0.78301324  0.96603161    -0.82000
C223        C  0.01486351  0.80837338  0.97334005     0.98500
O224        O  0.03683154  0.82086647  0.97036133    -0.82000
O225        O  0.09140836  0.83128273  0.96634079    -0.84700
C226        C  0.09953121  0.83042381  0.00711647     1.03000
O227        O  0.09813212  0.80869434  0.02903670    -0.77400
O228        O  0.08392913  0.75732833  0.05390877    -0.77600
C229        C  0.05952985  0.75790174  0.06713173     1.03000
O230        O  0.06751932  0.72194973  0.98397204    -0.84900
O231        O  0.04421419  0.74649744  0.90707804    -0.82000
C232        C  0.03772575  0.76459632  0.87888875     0.98500
O233        O  0.04042805  0.78924432  0.88920388    -0.82000
O234        O  0.09523182  0.79453844  0.89204089    -0.84600
C235        C  0.11931141  0.79413643  0.90543867     1.03000
O236        O  0.12479646  0.78928926  0.94707766    -0.77500
O237        O  0.10757572  0.73784407  0.96936060    -0.77600
C238        C  0.09247066  0.71805974  0.97723847     1.03000
Cr239      Cr  0.04384775  0.75487731  0.97314988     1.93700
Cr240      Cr  0.06626319  0.80677302  0.93234866     1.93200
Cr241      Cr  0.10125717  0.77353287  0.99750063     1.39100
O242        O  0.07053567  0.77829200  0.96785077    -1.22700
O243        O  0.26683884  0.93749808  0.52331064    -0.84900
O244        O  0.23285158  0.97213056  0.56956395    -0.82000
C245        C  0.21286967  0.97933612  0.59326475     0.98500
O246        O  0.20419726  0.96427805  0.62452424    -0.82000
O247        O  0.17868296  0.92161933  0.58187493    -0.84700
C248        C  0.17560012  0.89989054  0.55995866     1.03000
O249        O  0.19533479  0.88406951  0.55397089    -0.77400
O250        O  0.23345762  0.91179144  0.50167719    -0.77600
C251        C  0.25110702  0.92942945  0.49244471     1.03000
O252        O  0.28874572  0.91799064  0.60606529    -0.84900
O253        O  0.25706857  0.95663982  0.65392754    -0.82000
C254        C  0.24677622  0.94604266  0.68893076     0.98500
O255        O  0.23048313  0.92685020  0.68416831    -0.82000
O256        O  0.20194114  0.88551518  0.64620897    -0.84600
C257        C  0.21882432  0.86646742  0.64470514     1.03000
O258        O  0.23714449  0.86600325  0.61466597    -0.77500
O259        O  0.27537998  0.88793625  0.55576540    -0.77600
C260        C  0.29374187  0.89801669  0.58023693     1.03000
Cr261      Cr  0.25932416  0.94401869  0.58895033     1.93700
Cr262      Cr  0.20618785  0.92422558  0.63096030     1.93200
Cr263      Cr  0.23521548  0.88970123  0.55906677     1.39100
O264        O  0.23362186  0.91928135  0.59313732    -1.22700
O265        O  0.00437993  0.77680463  0.46986080    -0.84900
O266        O  0.97571034  0.75730211  0.54093515    -0.82000
C267        C  0.95640126  0.75347390  0.56763536     0.98500
O268        O  0.93237701  0.75274449  0.55275266    -0.82000
O269        O  0.91781775  0.80339265  0.52201902    -0.84700
C270        C  0.91588864  0.82410201  0.49749919     1.03000
O271        O  0.92588413  0.82393999  0.45795007    -0.77400
O272        O  0.98087822  0.81442370  0.46909157    -0.77600
C273        C  0.00302209  0.80231451  0.47526112     1.03000
O274        O  0.97743950  0.73822224  0.41073684    -0.84900
O275        O  0.95152757  0.71535853  0.48692592    -0.82000
C276        C  0.92678543  0.71116902  0.47827573     0.98500
O277        O  0.91191547  0.73086297  0.46821802    -0.82000
O278        O  0.89467082  0.78038056  0.43972596    -0.84600
C279        C  0.90070995  0.78318115  0.39788185     1.03000
O280        O  0.92515178  0.78524563  0.38664176    -0.77500
O281        O  0.98071820  0.78052783  0.38994383    -0.77600
C282        C  0.98522979  0.75570391  0.38252161     1.03000
Cr283      Cr  0.97504767  0.74851189  0.47604376     1.93700
Cr284      Cr  0.91671565  0.76716616  0.49362763     1.93200
Cr285      Cr  0.95286927  0.79891502  0.42889738     1.39100
O286        O  0.94810445  0.77138278  0.46619685    -1.22700
O287        O  0.79119830  0.98604262  0.09131107    -0.84900
O288        O  0.77255027  0.95779120  0.01954100    -0.82000
C289        C  0.77090024  0.93867800  0.99157308     0.98500
O290        O  0.77145627  0.91431669  0.00522846    -0.82000
O291        O  0.82180924  0.90269875  0.04005247    -0.84700
C292        C  0.84178561  0.90163142  0.06636488     1.03000
O293        O  0.83913481  0.90863634  0.10748680    -0.77400
O294        O  0.82914321  0.96290523  0.09669661    -0.77600
C295        C  0.81681404  0.98469695  0.08871829     1.03000
O296        O  0.75210988  0.95848160  0.14941435    -0.84900
O297        O  0.73132622  0.93142749  0.07135070    -0.82000
C298        C  0.72819806  0.90607102  0.07660439     0.98500
O299        O  0.74822729  0.89145091  0.08627925    -0.82000
O300        O  0.79833420  0.87662692  0.12009840    -0.84600
C301        C  0.79915382  0.88312490  0.16225023     1.03000
O302        O  0.79644633  0.90750936  0.17323189    -0.77500
O303        O  0.79383304  0.96279348  0.17184087    -0.77600
C304        C  0.76907068  0.96634661  0.17863860     1.03000
Cr305      Cr  0.76329532  0.95631211  0.08405248     1.93700
Cr306      Cr  0.78501519  0.89863958  0.06511731     1.93200
Cr307      Cr  0.81261943  0.93497492  0.13429350     1.39100
O308        O  0.78673439  0.93000672  0.09409894    -1.22700
O309        O  0.98249437  0.21890481  0.04027264    -0.84900
O310        O  0.00736924  0.20092681  0.96299213    -0.82000
C311        C  0.00789120  0.17540433  0.96727257     0.98500
O312        O  0.98635584  0.16199253  0.96494806    -0.82000
O313        O  0.93174824  0.14976658  0.96513246    -0.84700
C314        C  0.92550343  0.14897820  0.00681763     1.03000
O315        O  0.92757569  0.16987081  0.03081013    -0.77400
O316        O  0.93991802  0.22079751  0.05967858    -0.77600
C317        C  0.96463484  0.22012574  0.07063808     1.03000
O318        O  0.95267935  0.25911994  0.99048429    -0.84900
O319        O  0.97541854  0.23774951  0.90940967    -0.82000
C320        C  0.98181748  0.22044708  0.87944716     0.98500
O321        O  0.97880342  0.19557917  0.88758205    -0.82000
O322        O  0.92384129  0.18876753  0.89489207    -0.84600
C323        C  0.90035360  0.18909539  0.91114833     1.03000
O324        O  0.89677757  0.19104350  0.95397675    -0.77500
O325        O  0.91270012  0.24181356  0.98031712    -0.77600
C326        C  0.92731451  0.26206634  0.98743018     1.03000
Cr327      Cr  0.97727433  0.22751376  0.97520379     1.93700
Cr328      Cr  0.95489395  0.17615326  0.93122805     1.93200
Cr329      Cr  0.92160425  0.20573436  0.00343971     1.39100
O330        O  0.95116877  0.20337051  0.96987963    -1.22700
O331        O  0.75872132  0.04204858  0.51412873    -0.84900
O332        O  0.78641576  0.00084446  0.55675708    -0.82000
C333        C  0.80845970  0.99214051  0.57269716     0.98500
O334        O  0.82250037  0.00647261  0.59884224    -0.82000
O335        O  0.84714397  0.05267400  0.56856007    -0.84700
C336        C  0.85024233  0.07686009  0.55660044     1.03000
O337        O  0.83042040  0.09257305  0.55762708    -0.77400
O338        O  0.79168137  0.07060307  0.49996653    -0.77600
C339        C  0.77402413  0.05401819  0.48612027     1.03000
O340        O  0.73653702  0.05913470  0.60103993    -0.84900
O341        O  0.76477210  0.01688787  0.64313736    -0.82000
C342        C  0.78003482  0.02078924  0.67711174     0.98500
O343        O  0.80098338  0.03480754  0.67350966    -0.82000
O344        O  0.82603544  0.08035389  0.64699756    -0.84600
C345        C  0.81129195  0.10104094  0.65137561     1.03000
O346        O  0.79170811  0.10496361  0.62396147    -0.77500
O347        O  0.75180938  0.09118760  0.55799606    -0.77600
C348        C  0.73281917  0.08120659  0.58030318     1.03000
Cr349      Cr  0.76410014  0.03183852  0.57965937     1.93700
Cr350      Cr  0.82140430  0.04440093  0.61875173     1.93200
Cr351      Cr  0.79131477  0.08682450  0.56220508     1.39100
O352        O  0.79216984  0.05404393  0.58720785    -1.22700
C353        C  0.85377220  0.13773614  0.74121949    -0.05100
C354        C  0.83436025  0.15297382  0.76491899     0.09100
C355        C  0.80728399  0.15245500  0.75029967    -0.02400
C356        C  0.79948250  0.13602254  0.71280296    -0.00700
C357        C  0.81895232  0.12052159  0.68876894    -0.04300
C358        C  0.84638408  0.12184410  0.70348708     0.02700
C359        C  0.84312845  0.16756589  0.80729338     0.09500
C360        C  0.78742309  0.16838431  0.77462963     0.35400
C361        C  0.86757706  0.10640924  0.68114347     0.38900
C362        C  0.85766702  0.19187549  0.80349889    -0.04700
C363        C  0.87494666  0.20024071  0.83913120     0.02500
C364        C  0.87727419  0.18466736  0.87934763    -0.04300
C365        C  0.86017815  0.16212870  0.88509850    -0.00500
C366        C  0.84329162  0.15355364  0.84909198    -0.03100
C367        C  0.85633299  0.20708744  0.76140060     0.36200
C368        C  0.86176032  0.14595817  0.92605551     0.39800
C369        C  0.89130742  0.22418755  0.83347279     0.38900
C370        C  0.82797886  0.12878244  0.85340360     0.35800
C371        C  0.88156775  0.13761527  0.75701347     0.36500
C372        C  0.77116460  0.13342977  0.70185765     0.39800
N373        N  0.90438775  0.24327728  0.82889208    -0.38300
N374        N  0.85518269  0.21918139  0.72775031    -0.39900
N375        N  0.86258325  0.13256448  0.95824199    -0.37600
N376        N  0.81586165  0.10897178  0.85674572    -0.40000
N377        N  0.77159493  0.18118939  0.79401080    -0.39800
N378        N  0.74843878  0.13118340  0.69404011    -0.37400
N379        N  0.88469680  0.09401898  0.66426833    -0.38500
N380        N  0.90361994  0.13740625  0.76980640    -0.40100
C381        C  0.87471504  0.10290320  0.06379145    -0.05100
C382        C  0.88375225  0.07734199  0.04902854     0.09100
C383        C  0.90814530  0.07500107  0.02484749    -0.02400
C384        C  0.92288995  0.09835888  0.01366640    -0.00700
C385        C  0.91304047  0.12421829  0.02597358    -0.04300
C386        C  0.88927560  0.12629566  0.05249855     0.02700
C387        C  0.86706437  0.05300398  0.05855141     0.09500
C388        C  0.91774335  0.04856996  0.01075814     0.35400
C389        C  0.87846592  0.15252581  0.06531327     0.38900
C390        C  0.84706730  0.04491149  0.02721465    -0.04700
C391        C  0.82977580  0.02330306  0.03780361     0.02500
C392        C  0.83304307  0.00906927  0.07908908    -0.04300
C393        C  0.85335004  0.01704683  0.11019313    -0.00500
C394        C  0.87006958  0.03915713  0.10014017    -0.03100
C395        C  0.84449751  0.05871631  0.98384938     0.36200
C396        C  0.85669963  0.00286653  0.15308909     0.39800
C397        C  0.80908870  0.01545966  0.00562037     0.38900
C398        C  0.89026286  0.04791306  0.13269797     0.35800
C399        C  0.84976708  0.10511009  0.08923368     0.36500
C400        C  0.94844842  0.09574155  0.99021913     0.39800
N401        N  0.79261435  0.00964727  0.97953579    -0.38300
N402        N  0.84255407  0.06955401  0.94909096    -0.39900
N403        N  0.85940100  0.99151090  0.18723689    -0.37600
N404        N  0.90633214  0.05504780  0.15862232    -0.40000
N405        N  0.92537871  0.02748151  0.99942522    -0.39800
N406        N  0.96894426  0.09366929  0.97184519    -0.37400
N407        N  0.86970961  0.17339662  0.07543836    -0.38500
N408        N  0.82983699  0.10669610  0.10942411    -0.40100
C409        C  0.75012427  0.97698163  0.88442038    -0.05100
C410        C  0.76802412  0.96619967  0.85192747     0.09100
C411        C  0.78470979  0.94410038  0.86390094    -0.02400
C412        C  0.78401855  0.93340273  0.90860590    -0.00700
C413        C  0.76788143  0.94587680  0.94239315    -0.04300
C414        C  0.75086734  0.96780514  0.92975064     0.02700
C415        C  0.77076124  0.97998573  0.80666325     0.09500
C416        C  0.80354664  0.93327351  0.83082688     0.35400
C417        C  0.73532500  0.98246364  0.96365395     0.38900
C418        C  0.78227661  0.00598610  0.80460475    -0.04700
C419        C  0.78320810  0.02013260  0.76302809     0.02500
C420        C  0.77443846  0.00766317  0.72203725    -0.04300
C421        C  0.76310829  0.98138549  0.72421166    -0.00500
C422        C  0.76071585  0.96797896  0.76650428    -0.03100
C423        C  0.79357047  0.01814453  0.84542834     0.36200
C424        C  0.75498672  0.96739084  0.68296414     0.39800
C425        C  0.79276294  0.04783749  0.76304916     0.38900
C426        C  0.74795070  0.94171779  0.76878608     0.35800
C427        C  0.73154206  0.99838409  0.87140678     0.36500
C428        C  0.80130305  0.91077378  0.92036791     0.39800
N429        N  0.80031336  0.06992426  0.76330894    -0.38300
N430        N  0.80268084  0.02789661  0.87781569    -0.39900
N431        N  0.74861357  0.95611602  0.65009584    -0.37600
N432        N  0.73777802  0.92076631  0.77069882    -0.40000
N433        N  0.81862255  0.92473455  0.80439988    -0.39800
N434        N  0.81504226  0.89262788  0.92955178    -0.37400
N435        N  0.72356781  0.99497134  0.99045815    -0.38500
N436        N  0.71675123  0.01541595  0.86092927    -0.40100
C437        C  0.75730796  0.98243313  0.30322854    -0.05100
C438        C  0.76104356  0.01072709  0.30341655     0.09100
C439        C  0.76344545  0.02456707  0.26166109    -0.02400
C440        C  0.76333615  0.01007932  0.22013597    -0.00700
C441        C  0.76124201  0.98159462  0.22010510    -0.04300
C442        C  0.75791206  0.96785751  0.26177983     0.02700
C443        C  0.76429788  0.02551731  0.34781353     0.09500
C444        C  0.76721394  0.05360353  0.26163101     0.35400
C445        C  0.75687278  0.93857663  0.26223824     0.38900
C446        C  0.79030095  0.03101943  0.36495116    -0.04700
C447        C  0.79359712  0.04215876  0.40900796     0.02500
C448        C  0.77084386  0.04768979  0.43652782    -0.04300
C449        C  0.74477663  0.04412157  0.41767963    -0.00500
C450        C  0.74156740  0.03292245  0.37369646    -0.03100
C451        C  0.81373742  0.02426686  0.33771730     0.36200
C452        C  0.72113401  0.05232798  0.44324060     0.39800
C453        C  0.82050927  0.04651650  0.42662879     0.38900
C454        C  0.71483353  0.02849924  0.35525462     0.35800
C455        C  0.75391756  0.96821541  0.34596149     0.36500
C456        C  0.76685370  0.02438744  0.17748415     0.39800
N457        N  0.84204014  0.05009942  0.44039901    -0.38300
N458        N  0.83237884  0.01890351  0.31585442    -0.39900
N459        N  0.70223892  0.05899042  0.46341383    -0.37600
N460        N  0.69351783  0.02491533  0.34049615    -0.40000
N461        N  0.77040312  0.07675026  0.26164270    -0.39800
N462        N  0.76966327  0.03590827  0.14356835    -0.37400
N463        N  0.75625800  0.91520700  0.26271791    -0.38500
N464        N  0.75103666  0.95693768  0.38008548    -0.40100
C465        C  0.83211572  0.85386006  0.26947523    -0.05100
C466        C  0.82831806  0.82592324  0.26334765     0.09100
C467        C  0.81267372  0.81663271  0.22636731    -0.02400
C468        C  0.80217318  0.83514851  0.19399163    -0.00700
C469        C  0.80694790  0.86327616  0.19880630    -0.04300
C470        C  0.82161055  0.87243198  0.23777203     0.02700
C471        C  0.84290968  0.80686681  0.29464353     0.09500
C472        C  0.80762217  0.78795481  0.22158288     0.35400
C473        C  0.82781298  0.90084441  0.24458238     0.38900
C474        C  0.83430745  0.80390470  0.34001971    -0.04700
C475        C  0.85225431  0.79403694  0.37365851     0.02500
C476        C  0.87914597  0.78673472  0.36190748    -0.04300
C477        C  0.88595401  0.78578725  0.31481216    -0.00500
C478        C  0.86813930  0.79633370  0.28167121    -0.03100
C479        C  0.80736459  0.81266268  0.35239830     0.36200
C480        C  0.91145810  0.77446522  0.29983611     0.39800
C481        C  0.84287135  0.79267980  0.42028468     0.38900
C482        C  0.87646751  0.79787250  0.23439187     0.35800
C483        C  0.84796369  0.86351736  0.30790361     0.36500
C484        C  0.78689110  0.82502228  0.15549318     0.39800
N485        N  0.83481619  0.79163241  0.45718351    -0.38300
N486        N  0.78586557  0.81964551  0.36215090    -0.39900
N487        N  0.93176042  0.76550694  0.28760260    -0.37600
N488        N  0.88319401  0.79900368  0.19672808    -0.40000
N489        N  0.80350309  0.76505934  0.21790139    -0.39800
N490        N  0.77484606  0.81680137  0.12467340    -0.37400
N491        N  0.83285866  0.92341713  0.25026094    -0.38500
N492        N  0.86055810  0.87112451  0.33853926    -0.40100
C493        C  0.85631486  0.86600122  0.53974582    -0.05100
C494        C  0.86476189  0.89242771  0.52930890     0.09100
C495        C  0.89083750  0.89659113  0.51178173    -0.02400
C496        C  0.90806787  0.87439160  0.50327759    -0.00700
C497        C  0.89946617  0.84777192  0.51265331    -0.04300
C498        C  0.87373299  0.84380716  0.53234144     0.02700
C499        C  0.84722746  0.91621185  0.54070801     0.09500
C500        C  0.90004858  0.92388341  0.50320501     0.35400
C501        C  0.86484112  0.81691321  0.54462256     0.38900
C502        C  0.84623103  0.92563244  0.58597952    -0.04700
C503        C  0.83166228  0.94925662  0.59674761     0.02500
C504        C  0.81887287  0.96451167  0.56187094    -0.04300
C505        C  0.81872742  0.95425231  0.51683418    -0.00500
C506        C  0.83272133  0.93004303  0.50641123    -0.03100
C507        C  0.86113032  0.91146602  0.62130261     0.36200
C508        C  0.80531408  0.96911175  0.48078440     0.39800
C509        C  0.82983162  0.95770173  0.64408940     0.38900
C510        C  0.83276946  0.91963372  0.46019425     0.35800
C511        C  0.82952047  0.86168687  0.55782680     0.36500
C512        C  0.93512900  0.87913263  0.48681936     0.39800
N513        N  0.82843728  0.96430540  0.68187009    -0.38300
N514        N  0.87314619  0.90015083  0.64925243    -0.39900
N515        N  0.79456980  0.98090502  0.45195730    -0.37600
N516        N  0.83276984  0.91130563  0.42331854    -0.40000
N517        N  0.90729418  0.94570191  0.49650840    -0.39800
N518        N  0.95677910  0.88309820  0.47410534    -0.37400
N519        N  0.85782697  0.79551637  0.55492957    -0.38500
N520        N  0.80812775  0.85824406  0.57216185    -0.40100
C521        C  0.12022473  0.86829882  0.48757605    -0.05100
C522        C  0.09940825  0.86518125  0.51985567     0.09100
C523        C  0.10269306  0.87620313  0.56397690    -0.02400
C524        C  0.12721909  0.88855468  0.57665646    -0.00700
C525        C  0.14834001  0.89106327  0.54468153    -0.04300
C526        C  0.14431323  0.88165016  0.49968943     0.02700
C527        C  0.07462340  0.84909695  0.50821726     0.09500
C528        C  0.08096806  0.87420473  0.59671532     0.35400
C529        C  0.16489430  0.88596394  0.46560456     0.38900
C530        C  0.07108548  0.82304395  0.52674593    -0.04700
C531        C  0.04767023  0.80796563  0.51674282     0.02500
C532        C  0.02781638  0.81832273  0.48660927    -0.04300
C533        C  0.03202079  0.84409248  0.46669062    -0.00500
C534        C  0.05488235  0.85960172  0.47839361    -0.03100
C535        C  0.09179241  0.81162753  0.55600828     0.36200
C536        C  0.01378795  0.85411764  0.43185723     0.39800
C537        C  0.04400010  0.78201933  0.53855832     0.38900
C538        C  0.05812403  0.88649268  0.45968631     0.35800
C539        C  0.11723502  0.85691290  0.44227614     0.36500
C540        C  0.13131261  0.89696923  0.62353273     0.39800
N541        N  0.04145592  0.76136460  0.55634016    -0.38300
N542        N  0.10833089  0.80256762  0.57932387    -0.39900
N543        N  0.99947182  0.86197151  0.40361807    -0.37600
N544        N  0.06071783  0.90794491  0.44477380    -0.40000
N545        N  0.06359120  0.87257251  0.62274473    -0.39800
N546        N  0.13467493  0.90349691  0.66099461    -0.37400
N547        N  0.18109516  0.88966039  0.43810352    -0.38500
N548        N  0.11483459  0.84779238  0.40616034    -0.40100
C549        C  0.96677800  0.86158261  0.02228151    -0.05100
C550        C  0.94206306  0.85385989  0.00270165     0.09100
C551        C  0.94115957  0.83164268  0.97265785    -0.02400
C552        C  0.96487024  0.81701372  0.96238386    -0.00700
C553        C  0.98964453  0.82392520  0.98349020    -0.04300
C554        C  0.99031488  0.84635819  0.01374249     0.02700
C555        C  0.91648906  0.86680864  0.01866653     0.09500
C556        C  0.91556358  0.82348495  0.95319525     0.35400
C557        C  0.01460583  0.85265897  0.03913975     0.38900
C558        C  0.90404951  0.88779998  0.99372634    -0.04700
C559        C  0.87979840  0.89957664  0.00952159     0.02500
C560        C  0.86784264  0.89025411  0.05023835    -0.04300
C561        C  0.88071755  0.86951639  0.07540723    -0.00500
C562        C  0.90481473  0.85781453  0.05956856    -0.03100
C563        C  0.91632217  0.89731850  0.95202452     0.36200
C564        C  0.86905090  0.85953070  0.11725889     0.39800
C565        C  0.86780535  0.92204628  0.98499894     0.38900
C566        C  0.91759167  0.83617142  0.08518738     0.35800
C567        C  0.96773174  0.88489537  0.05232357     0.36500
C568        C  0.96355839  0.79518037  0.92944717     0.39800
N569        N  0.85829944  0.94010942  0.96570191    -0.38300
N570        N  0.92609886  0.90491382  0.91870623    -0.39900
N571        N  0.86032319  0.85125086  0.15088608    -0.37600
N572        N  0.92783836  0.81892697  0.10549164    -0.40000
N573        N  0.89508112  0.81700462  0.93790669    -0.39800
N574        N  0.96222033  0.77785731  0.90301708    -0.37400
N575        N  0.03373087  0.85746195  0.06019902    -0.38500
N576        N  0.96842216  0.90356560  0.07609762    -0.40100
C577        C  0.18095561  0.79237361  0.82714990    -0.05100
C578        C  0.17536546  0.81464068  0.79853040     0.09100
C579        C  0.15342113  0.83176989  0.80883599    -0.02400
C580        C  0.13606636  0.82563450  0.84521713    -0.00700
C581        C  0.14041870  0.80221434  0.87201455    -0.04300
C582        C  0.16375749  0.78641650  0.86430573     0.02700
C583        C  0.19226522  0.82075853  0.75739951     0.09500
C584        C  0.14869850  0.85586652  0.78178902     0.35400
C585        C  0.17005576  0.76408754  0.89435673     0.38900
C586        C  0.18228414  0.81476827  0.71338721    -0.04700
C587        C  0.19390748  0.82686250  0.67459522     0.02500
C588        C  0.21551705  0.84507823  0.67950337    -0.04300
C589        C  0.22713269  0.84895769  0.72304323    -0.00500
C590        C  0.21556293  0.83678961  0.76186644    -0.03100
C591        C  0.15854070  0.79805848  0.70844043     0.36200
C592        C  0.24930221  0.86766861  0.72852746     0.39800
C593        C  0.18203080  0.82266720  0.62992783     0.38900
C594        C  0.22611790  0.84270250  0.80687969     0.35800
C595        C  0.20420430  0.77547960  0.81794171     0.36500
C596        C  0.11401890  0.84399337  0.85576166     0.39800
N597        N  0.17260801  0.81950403  0.59422081    -0.38300
N598        N  0.13947533  0.78489184  0.70453743    -0.39900
N599        N  0.26692524  0.88265275  0.73314065    -0.37600
N600        N  0.23443715  0.84741449  0.84288008    -0.40000
N601        N  0.14499621  0.87509716  0.76027894    -0.39800
N602        N  0.09647742  0.85864306  0.86414265    -0.37400
N603        N  0.17540234  0.74654360  0.91880479    -0.38500
N604        N  0.22282002  0.76203666  0.81057288    -0.40100
C605        C  0.03759472  0.75868148  0.28843982    -0.05100
C606        C  0.02651273  0.74094175  0.25595100     0.09100
C607        C  0.00431253  0.72470157  0.26794720    -0.02400
C608        C  0.99186200  0.72789981  0.31094854    -0.00700
C609        C  0.00112472  0.74796043  0.34148887    -0.04300
C610        C  0.02487347  0.76238486  0.33083825     0.02700
C611        C  0.03482190  0.74365877  0.20714471     0.09500
C612        C  0.99341291  0.70585174  0.23492517     0.35400
C613        C  0.03624875  0.78144871  0.36308512     0.38900
C614        C  0.05870941  0.73172411  0.19056588    -0.04700
C615        C  0.06758505  0.73712074  0.14565100     0.02500
C616        C  0.05195088  0.75375581  0.11620888    -0.04300
C617        C  0.02777778  0.76547995  0.13347327    -0.00500
C618        C  0.01961576  0.76072089  0.17862245    -0.03100
C619        C  0.07406775  0.71380747  0.21986308     0.36200
C620        C  0.01102564  0.78298906  0.10562128     0.39800
C621        C  0.09264288  0.72515242  0.13008384     0.38900
C622        C  0.99564313  0.77401752  0.19635518     0.35800
C623        C  0.06129940  0.77431827  0.27707671     0.36500
C624        C  0.96858477  0.71173852  0.32247101     0.39800
N625        N  0.11273778  0.71564560  0.11800625    -0.38300
N626        N  0.08626704  0.69941297  0.24318235    -0.39900
N627        N  0.99702498  0.79669016  0.08411082    -0.37600
N628        N  0.97664639  0.78465522  0.21062329    -0.40000
N629        N  0.98467380  0.69089187  0.20844884    -0.39800
N630        N  0.95005772  0.69879560  0.33180021    -0.37400
N631        N  0.04575913  0.79678171  0.38811878    -0.38500
N632        N  0.08025225  0.78667176  0.26793957    -0.40100
C633        C  0.98920711  0.73632716  0.79026320    -0.05100
C634        C  0.99636850  0.75169568  0.75182616     0.09100
C635        C  0.01842411  0.76948834  0.75422212    -0.02400
C636        C  0.03318448  0.77205041  0.79492147    -0.00700
C637        C  0.02526435  0.75776805  0.83432879    -0.04300
C638        C  0.00351669  0.73942211  0.83158457     0.02700
C639        C  0.98237044  0.74787634  0.70723131     0.09500
C640        C  0.02588053  0.78528038  0.71458085     0.35400
C641        C  0.99523700  0.72435703  0.87145215     0.38900
C642        C  0.95885410  0.76269897  0.69661368    -0.04700
C643        C  0.94903620  0.76327518  0.65135018     0.02500
C644        C  0.96290892  0.74909613  0.61660673    -0.04300
C645        C  0.98540186  0.73272936  0.62839052    -0.00500
C646        C  0.99488720  0.73201618  0.67351761    -0.03100
C647        C  0.94559336  0.77833407  0.73193676     0.36200
C648        C  0.99985801  0.71748476  0.59389270     0.39800
C649        C  0.92601797  0.78014011  0.64019129     0.38900
C650        C  0.01852801  0.71601580  0.68501517     0.35800
C651        C  0.96702088  0.71747833  0.78717984     0.36500
C652        C  0.05718834  0.78866563  0.79547777     0.39800
N653        N  0.90768762  0.79372001  0.63153948    -0.38300
N654        N  0.93503612  0.79072567  0.76026775    -0.39900
N655        N  0.01206930  0.70574385  0.56671708    -0.37600
N656        N  0.03741049  0.70337481  0.69428308    -0.40000
N657        N  0.03174698  0.79789515  0.68299875    -0.39800
N658        N  0.07644618  0.80172634  0.79507200    -0.37400
N659        N  0.98859473  0.71235584  0.90326919    -0.38500
N660        N  0.94929617  0.70245468  0.78461104    -0.40100
C661        C  0.15316444  0.94106922  0.10565817    -0.05100
C662        C  0.15888711  0.92440849  0.06787460     0.09100
C663        C  0.18026283  0.93102622  0.03840210    -0.02400
C664        C  0.19562071  0.95445919  0.04625005    -0.00700
C665        C  0.18970465  0.97140791  0.08366754    -0.04300
C666        C  0.16844802  0.96457558  0.11347224     0.02700
C667        C  0.14184458  0.90034137  0.05765783     0.09500
C668        C  0.18599762  0.91397587  0.99926621     0.35400
C669        C  0.16237344  0.98167926  0.15238503     0.38900
C670        C  0.11729132  0.90362179  0.03407941    -0.04700
C671        C  0.10286732  0.88081700  0.01893383     0.02500
C672        C  0.11286708  0.85446712  0.02759617    -0.04300
C673        C  0.13708993  0.85132313  0.05281233    -0.00500
C674        C  0.15130441  0.87421160  0.06814099    -0.03100
C675        C  0.10723810  0.93059762  0.02451106     0.36200
C676        C  0.14865015  0.82468881  0.06015180     0.39800
C677        C  0.07793904  0.88467464  0.99385556     0.38900
C678        C  0.17612694  0.87097072  0.09378182     0.35800
C679        C  0.13141045  0.93404782  0.13623340     0.36500
C680        C  0.21646318  0.96173324  0.01420639     0.39800
N681        N  0.05814165  0.88793954  0.97368823    -0.38300
N682        N  0.09925172  0.95215750  0.01715394    -0.39900
N683        N  0.15798352  0.80347690  0.06573355    -0.37600
N684        N  0.19590095  0.86843491  0.11429541    -0.40000
N685        N  0.19054215  0.90033486  0.96811600    -0.39800
N686        N  0.23279905  0.96706888  0.98776973    -0.37400
N687        N  0.15752955  0.99539638  0.18331468    -0.38500
N688        N  0.11401750  0.92842105  0.16054330    -0.40100
C689        C  0.10598939  0.09356121  0.02871574    -0.05100
C690        C  0.10747098  0.11610536  0.99954458     0.09100
C691        C  0.13269936  0.12466669  0.98329216    -0.02400
C692        C  0.15655920  0.11250937  0.99964810    -0.00700
C693        C  0.15523724  0.09035225  0.03010531    -0.04300
C694        C  0.12971830  0.08025632  0.04291840     0.02700
C695        C  0.08262934  0.13210521  0.98881853     0.09500
C696        C  0.13401982  0.14646553  0.95040900     0.35400
C697        C  0.12775674  0.05609904  0.07065995     0.38900
C698        C  0.07790295  0.15687940  0.01137821    -0.04700
C699        C  0.05401729  0.17157962  0.00310622     0.02500
C700        C  0.03412792  0.16109051  0.97333933    -0.04300
C701        C  0.03951263  0.13680129  0.94923960    -0.00500
C702        C  0.06373699  0.12247284  0.95686411    -0.03100
C703        C  0.09756576  0.16708484  0.04371087     0.36200
C704        C  0.02079941  0.12714757  0.91489190     0.39800
C705        C  0.04989079  0.19722773  0.02618684     0.38900
C706        C  0.06949941  0.09796519  0.93142072     0.35800
C707        C  0.08003222  0.08462246  0.04532541     0.36500
C708        C  0.18225543  0.12438874  0.98785681     0.39800
N709        N  0.04679769  0.21769019  0.04465408    -0.38300
N710        N  0.11327225  0.17526416  0.06939063    -0.39900
N711        N  0.00598408  0.11951137  0.88727246    -0.37600
N712        N  0.07422070  0.07846230  0.91107894    -0.40000
N713        N  0.13498704  0.16372041  0.92393486    -0.39800
N714        N  0.20266853  0.13415910  0.97873587    -0.37400
N715        N  0.12618039  0.03676712  0.09258492    -0.38500
N716        N  0.05930936  0.07757724  0.05863416    -0.40100
C717        C  0.23609959  0.96913182  0.81243863    -0.05100
C718        C  0.25744738  0.98744790  0.81811571     0.09100
C719        C  0.27693970  0.99003069  0.78373252    -0.02400
C720        C  0.27457104  0.97513396  0.74281923    -0.00700
C721        C  0.25206228  0.95796568  0.73530666    -0.04300
C722        C  0.23328685  0.95447011  0.77144100     0.02700
C723        C  0.25983872  0.00308407  0.86159781     0.09500
C724        C  0.29942335  0.00822660  0.79058434     0.35400
C725        C  0.21053724  0.93634296  0.76692003     0.38900
C726        C  0.27552132  0.99267053  0.89750260    -0.04700
C727        C  0.27511835  0.00526367  0.94057075     0.02500
C728        C  0.25879334  0.02851131  0.94827657    -0.04300
C729        C  0.24408432  0.03961648  0.91138228    -0.00500
C730        C  0.24466049  0.02692335  0.86821114    -0.03100
C731        C  0.29106417  0.96809240  0.89059542     0.36200
C732        C  0.22660604  0.06276039  0.91830739     0.39800
C733        C  0.29073763  0.99332014  0.97734203     0.38900
C734        C  0.22865144  0.03765390  0.83095277     0.35800
C735        C  0.21684965  0.96552701  0.84909663     0.36500
C736        C  0.29582334  0.97723134  0.70919314     0.39800
N737        N  0.30305539  0.98357622  0.00658250    -0.38300
N738        N  0.30335627  0.94844821  0.88501704    -0.39900
N739        N  0.21241198  0.08112015  0.92321620    -0.37600
N740        N  0.21581398  0.04616256  0.80127317    -0.40000
N741        N  0.31732067  0.02275433  0.79621905    -0.39800
N742        N  0.31288646  0.97893105  0.68257497    -0.37400
N743        N  0.19240779  0.92185169  0.76365343    -0.38500
N744        N  0.20158330  0.96269138  0.87840892    -0.40100
C745        C  0.23410755  0.99847591  0.30677542    -0.05100
C746        C  0.25558986  0.98019916  0.31357207     0.09100
C747        C  0.27572937  0.97763888  0.27995391    -0.02400
C748        C  0.27377946  0.99245661  0.23883426    -0.00700
C749        C  0.25177254  0.01028464  0.23142671    -0.04300
C750        C  0.23266998  0.01405367  0.26679709     0.02700
C751        C  0.25777072  0.96566925  0.35823642     0.09500
C752        C  0.29833694  0.95956891  0.28763485     0.35400
C753        C  0.21171275  0.03450707  0.26286987     0.38900
C754        C  0.25027804  0.93830825  0.36241113    -0.04700
C755        C  0.24902632  0.92602144  0.40589370     0.02500
C756        C  0.25411805  0.94137885  0.44576813    -0.04300
C757        C  0.26283462  0.96862988  0.44088475    -0.00500
C758        C  0.26505380  0.98036987  0.39741018    -0.03100
C759        C  0.24351380  0.92293252  0.32191682     0.36200
C760        C  0.26875600  0.98542455  0.48027236     0.39800
C761        C  0.24379092  0.89731297  0.40920066     0.38900
C762        C  0.27426031  0.00806532  0.39282753     0.35800
C763        C  0.21317959  0.00105541  0.34101823     0.36500
C764        C  0.29412985  0.98874493  0.20401912     0.39800
N765        N  0.23996286  0.87431660  0.41172511    -0.38300
N766        N  0.23817247  0.91067136  0.28954264    -0.39900
N767        N  0.27367682  0.99915321  0.51113720    -0.37600
N768        N  0.28155087  0.03011667  0.38899625    -0.40000
N769        N  0.31633993  0.94508574  0.29372919    -0.39800
N770        N  0.31046771  0.98585429  0.17635761    -0.37400
N771        N  0.19505379  0.05084939  0.26000926    -0.38500
N772        N  0.19646786  0.00304571  0.36823777    -0.40100
C773        C  0.92219873  0.08534683  0.51145797    -0.05100
C774        C  0.92766435  0.11209206  0.52521098     0.09100
C775        C  0.90825935  0.12686479  0.54968594    -0.02400
C776        C  0.88287703  0.11569232  0.55821156    -0.00700
C777        C  0.87718519  0.08847170  0.54549542    -0.04300
C778        C  0.89732014  0.07323291  0.52270381     0.02700
C779        C  0.95340840  0.12575177  0.51321756     0.09500
C780        C  0.91449953  0.15389741  0.56607683     0.35400
C781        C  0.89231660  0.04549352  0.50934589     0.38900
C782        C  0.95300797  0.14672000  0.48075348    -0.04700
C783        C  0.97535980  0.16382772  0.47599859     0.02500
C784        C  0.99923379  0.15865419  0.50105460    -0.04300
C785        C  0.99956978  0.13759426  0.53364780    -0.00500
C786        C  0.97670814  0.12121689  0.53966103    -0.03100
C787        C  0.92925701  0.15088914  0.45263912     0.36200
C788        C  0.02267200  0.13406026  0.56347426     0.39800
C789        C  0.97322016  0.18709162  0.44616942     0.38900
C790        C  0.97685435  0.10009464  0.57383506     0.35800
C791        C  0.94200060  0.07061477  0.48488734     0.36500
C792        C  0.86294224  0.13283362  0.58030735     0.39800
N793        N  0.97116709  0.20586252  0.42293804    -0.38300
N794        N  0.91036781  0.15412598  0.43011339    -0.39900
N795        N  0.04097461  0.13144873  0.58757509    -0.37600
N796        N  0.97695077  0.08315086  0.60094345    -0.40000
N797        N  0.91952093  0.17538112  0.57912296    -0.39800
N798        N  0.84732182  0.14699117  0.59738264    -0.37400
N799        N  0.88850882  0.02330655  0.49865705    -0.38500
N800        N  0.95781791  0.05899921  0.46348196    -0.40100
C801        C  0.03573771  0.25465357  0.67844073    -0.05100
C802        C  0.04338406  0.23639579  0.71296391     0.09100
C803        C  0.06439013  0.21767621  0.70453541    -0.02400
C804        C  0.07580688  0.21544971  0.66050598    -0.00700
C805        C  0.06629263  0.23205079  0.62479136    -0.04300
C806        C  0.04730233  0.25266224  0.63467648     0.02700
C807        C  0.02661475  0.23419270  0.75535549     0.09500
C808        C  0.07321370  0.19977349  0.74067557     0.35400
C809        C  0.03915335  0.27148155  0.59932560     0.38900
C810        C  0.00467028  0.21622253  0.75576384    -0.04700
C811        C  0.98885226  0.21330231  0.79528691     0.02500
C812        C  0.99496591  0.22809271  0.83543016    -0.04300
C813        C  0.01634895  0.24697903  0.83430538    -0.00500
C814        C  0.03208101  0.24997100  0.79438136    -0.03100
C815        C  0.99869712  0.20027589  0.71542035     0.36200
C816        C  0.02316916  0.26235782  0.87478082     0.39800
C817        C  0.96620760  0.19488061  0.79441757     0.38900
C818        C  0.05438865  0.26873878  0.79371811     0.35800
C819        C  0.01482272  0.27450390  0.68733765     0.36500
C820        C  0.09592466  0.19485080  0.65131077     0.39800
N821        N  0.94822049  0.18011376  0.79364226    -0.38300
N822        N  0.99411559  0.18757272  0.68319082    -0.39900
N823        N  0.02861786  0.27466054  0.90706602    -0.37600
N824        N  0.07222989  0.28368928  0.79315148    -0.40000
N825        N  0.08024977  0.18553124  0.76960944    -0.39800
N826        N  0.11198989  0.17838557  0.64411773    -0.37400
N827        N  0.03272487  0.28652007  0.57114287    -0.38500
N828        N  0.99807204  0.29026370  0.69452245    -0.40100
C829        C  0.97213565  0.24052044  0.19649138    -0.05100
C830        C  0.99460072  0.22467157  0.20958952     0.09100
C831        C  0.00607313  0.20662167  0.17764378    -0.02400
C832        C  0.99465669  0.20368926  0.13391961    -0.00700
C833        C  0.97337996  0.22079135  0.11951246    -0.04300
C834        C  0.96176725  0.23888393  0.15148033     0.02700
C835        C  0.00436694  0.22407764  0.25827535     0.09500
C836        C  0.02950452  0.19059582  0.19014213     0.35400
C837        C  0.93892389  0.25554013  0.13857019     0.38900
C838        C  0.99945934  0.20094088  0.28474258    -0.04700
C839        C  0.01179648  0.19773979  0.32771231     0.02500
C840        C  0.02867519  0.21836968  0.34625435    -0.04300
C841        C  0.03212047  0.24241436  0.32056947    -0.00500
C842        C  0.02020820  0.24508120  0.27672966    -0.03100
C843        C  0.98207140  0.17983202  0.26689904     0.36200
C844        C  0.04895384  0.26400604  0.33784708     0.39800
C845        C  0.00712142  0.17254355  0.35170969     0.38900
C846        C  0.02483409  0.26917928  0.24994226     0.35800
C847        C  0.95945110  0.25820142  0.22959598     0.36500
C848        C  0.00303760  0.18112516  0.10557990     0.39800
N849        N  0.00344020  0.15222975  0.37010125    -0.38300
N850        N  0.96837240  0.16296756  0.25254750    -0.39900
N851        N  0.06237680  0.28129232  0.35151726    -0.37600
N852        N  0.02838049  0.28845636  0.22858109    -0.40000
N853        N  0.04820689  0.17788117  0.20015560    -0.39800
N854        N  0.00922500  0.16260081  0.08381138    -0.37400
N855        N  0.92049958  0.26868666  0.12865435    -0.38500
N856        N  0.94936128  0.27233572  0.25604202    -0.40100
C857        C  0.15696998  0.14717846  0.31175418    -0.05100
C858        C  0.17831723  0.16431318  0.29927420     0.09100
C859        C  0.18375557  0.18760108  0.32553145    -0.02400
C860        C  0.16730003  0.19418485  0.36339411    -0.00700
C861        C  0.14536995  0.17743406  0.37492461    -0.04300
C862        C  0.14076316  0.15352802  0.34949768     0.02700
C863        C  0.19520351  0.15648333  0.25913520     0.09500
C864        C  0.20603364  0.20485009  0.31311990     0.35400
C865        C  0.11954965  0.13498834  0.36262803     0.38900
C866        C  0.18542112  0.16109732  0.21461464    -0.04700
C867        C  0.19511548  0.14541665  0.17778012     0.02500
C868        C  0.21470122  0.12507955  0.18558433    -0.04300
C869        C  0.22684369  0.12306592  0.22921722    -0.00500
C870        C  0.21722527  0.13890036  0.26573360    -0.03100
C871        C  0.16388830  0.18053537  0.20753735     0.36200
C872        C  0.24805771  0.10338025  0.23741960     0.39800
C873        C  0.18284038  0.14833350  0.13316211     0.38900
C874        C  0.22856650  0.13564272  0.31098787     0.35800
C875        C  0.15162560  0.12287288  0.28543846     0.36500
C876        C  0.17238502  0.21855332  0.38941610     0.39800
N877        N  0.17296049  0.15062676  0.09762191    -0.38300
N878        N  0.14673226  0.19608684  0.20194786    -0.39900
N879        N  0.26481454  0.08754083  0.24410806    -0.37600
N880        N  0.23763420  0.13316719  0.34710318    -0.40000
N881        N  0.22385872  0.21857391  0.30312838    -0.39800
N882        N  0.17647815  0.23801266  0.41019970    -0.37400
N883        N  0.10265652  0.12023205  0.37308083    -0.38500
N884        N  0.14739179  0.10358068  0.26429654    -0.40100
C885        C  0.17730216  0.03771075  0.53302178    -0.05100
C886        C  0.16939637  0.05405617  0.57026015     0.09100
C887        C  0.17657844  0.04627708  0.61491325    -0.02400
C888        C  0.19169957  0.02244737  0.62228046    -0.00700
C889        C  0.19910350  0.00570018  0.58506257    -0.04300
C890        C  0.19155482  0.01337093  0.54043420     0.02700
C891        C  0.15313275  0.07924443  0.56213704     0.09500
C892        C  0.16797482  0.06259845  0.65338871     0.35400
C893        C  0.19663915  0.99532341  0.50238013     0.38900
C894        C  0.12608959  0.07735601  0.54757607    -0.04700
C895        C  0.11180028  0.10074230  0.53418435     0.02500
C896        C  0.12402186  0.12645807  0.53726857    -0.04300
C897        C  0.15044529  0.12848743  0.55524305    -0.00500
C898        C  0.16508329  0.10493120  0.56675580    -0.03100
C899        C  0.11310243  0.05117637  0.54573903     0.36200
C900        C  0.16331968  0.15463379  0.55948290     0.39800
C901        C  0.08459165  0.09815918  0.51665498     0.38900
C902        C  0.19287193  0.10702837  0.58166506     0.35800
C903        C  0.17042363  0.04582393  0.48693699     0.36500
C904        C  0.19974953  0.01532353  0.66832236     0.39800
N905        N  0.06299669  0.09589512  0.50229357    -0.38300
N906        N  0.10275985  0.03028716  0.54432208    -0.39900
N907        N  0.17362664  0.17545453  0.56308521    -0.37600
N908        N  0.21503129  0.10865065  0.59360089    -0.40000
N909        N  0.16112651  0.07564726  0.68404871    -0.39800
N910        N  0.20612033  0.00964131  0.70504292    -0.37400
N911        N  0.20024103  0.98076505  0.47208238    -0.38500
N912        N  0.16484678  0.05231240  0.45023783    -0.40100
C913        C  0.11775571  0.65541632  0.03864171    -0.05100
C914        C  0.14154312  0.64992935  0.01397878     0.09100
C915        C  0.14544878  0.66269922  0.97150873    -0.02400
C916        C  0.12742025  0.68303161  0.95653781    -0.00700
C917        C  0.10530327  0.69085940  0.98390362    -0.04300
C918        C  0.09928019  0.67523811  0.02297139     0.02700
C919        C  0.16397770  0.63335611  0.03474587     0.09500
C920        C  0.16879844  0.65576255  0.94424611     0.35400
C921        C  0.07471802  0.68020689  0.04828838     0.38900
C922        C  0.16370205  0.60487944  0.03380685    -0.04700
C923        C  0.18619349  0.58978432  0.04982138     0.02500
C924        C  0.20984007  0.60310212  0.06560546    -0.04300
C925        C  0.20874273  0.63186444  0.07011631    -0.00500
C926        C  0.18606181  0.64664481  0.05474075    -0.03100
C927        C  0.14039988  0.59112357  0.01526094     0.36200
C928        C  0.23086787  0.64693450  0.09007202     0.39800
C929        C  0.18459845  0.56056035  0.04974794     0.38900
C930        C  0.18554862  0.67591850  0.05871536     0.35800
C931        C  0.11320271  0.64193550  0.08170925     0.36500
C932        C  0.13148953  0.69586268  0.91273625     0.39800
N933        N  0.18299921  0.53724179  0.05010344    -0.38300
N934        N  0.12176672  0.58017429  0.00051721    -0.39900
N935        N  0.24839362  0.65929654  0.10553721    -0.37600
N936        N  0.18501469  0.69923269  0.06177136    -0.40000
N937        N  0.18746259  0.65021281  0.92257233    -0.39800
N938        N  0.13448734  0.70590498  0.87755056    -0.37400
N939        N  0.05497410  0.68390772  0.06826669    -0.38500
N940        N  0.10965922  0.63125929  0.11619937    -0.40100
C941        C  0.37347891  0.82050210  0.47803292    -0.05100
C942        C  0.38353666  0.83624777  0.51430146     0.09100
C943        C  0.41024108  0.83203891  0.52910253    -0.02400
C944        C  0.42584537  0.81044377  0.51103986    -0.00700
C945        C  0.41483095  0.79274294  0.47764533    -0.04300
C946        C  0.38897796  0.79908928  0.45960296     0.02700
C947        C  0.36494514  0.85556249  0.53884865     0.09500
C948        C  0.42132940  0.84955737  0.56400746     0.35400
C949        C  0.37764084  0.78322489  0.42273638     0.38900
C950        C  0.35044205  0.84663688  0.57733367    -0.04700
C951        C  0.32856770  0.86203001  0.59440271     0.02500
C952        C  0.32143076  0.88685242  0.57394834    -0.04300
C953        C  0.33766363  0.89699272  0.53832197    -0.00500
C954        C  0.35917628  0.88131616  0.52062185    -0.03100
C955        C  0.35711571  0.82078677  0.59769056     0.36200
C956        C  0.33117344  0.92284531  0.51779638     0.39800
C957        C  0.31233346  0.85152728  0.63124698     0.38900
C958        C  0.37444013  0.89095561  0.48193536     0.35800
C959        C  0.34652116  0.82570943  0.46085285     0.36500
C960        C  0.45259106  0.80583558  0.52920557     0.39800
N961        N  0.29938640  0.84301657  0.66057622    -0.38300
N962        N  0.36261523  0.80017819  0.61385823    -0.39900
N963        N  0.32623632  0.94348900  0.50124749    -0.37600
N964        N  0.38657284  0.89857139  0.45093664    -0.40000
N965        N  0.43018840  0.86363182  0.59172717    -0.39800
N966        N  0.47394061  0.80264758  0.54411167    -0.37400
N967        N  0.36801958  0.77078928  0.39357644    -0.38500
N968        N  0.32503663  0.82994623  0.44721280    -0.40100
C969        C  0.35449677  0.65579415  0.21309814    -0.05100
C970        C  0.33535997  0.66358310  0.24631239     0.09100
C971        C  0.30794369  0.65712054  0.23968380    -0.02400
C972        C  0.30025830  0.64031941  0.20301256    -0.00700
C973        C  0.31969255  0.63141099  0.17131349    -0.04300
C974        C  0.34660269  0.64003583  0.17549798     0.02700
C975        C  0.34510699  0.67442023  0.29107288     0.09500
C976        C  0.28796049  0.66659860  0.27198181     0.35400
C977        C  0.36688092  0.63070489  0.14355533     0.38900
C978        C  0.35894274  0.69925352  0.29300284    -0.04700
C979        C  0.37584648  0.70500647  0.33039679     0.02500
C980        C  0.37664329  0.68738530  0.36819866    -0.04300
C981        C  0.36010426  0.66432263  0.36871418    -0.00500
C982        C  0.34501275  0.65739017  0.32974598    -0.03100
C983        C  0.35730859  0.71785368  0.25495291     0.36200
C984        C  0.36084883  0.64607159  0.40728509     0.39800
C985        C  0.39416439  0.72771952  0.32816855     0.38900
C986        C  0.33141255  0.63149361  0.32806657     0.35800
C987        C  0.38277638  0.66232818  0.21905492     0.36500
C988        C  0.27281205  0.63062222  0.19970693     0.39800
N989        N  0.40909392  0.74555632  0.32601475    -0.38300
N990        N  0.35601363  0.73265887  0.22455476    -0.39900
N991        N  0.36128193  0.63118617  0.43759869    -0.37600
N992        N  0.32064013  0.61082139  0.32667497    -0.40000
N993        N  0.27204082  0.67412719  0.29784559    -0.39800
N994        N  0.25099541  0.62261744  0.19734249    -0.37400
N995        N  0.38365463  0.62342302  0.11910694    -0.38500
N996        N  0.40530586  0.66761853  0.22343303    -0.40100
C997        C  0.11842378  0.33605047  0.51243520    -0.05100
C998        C  0.14481204  0.33373368  0.53004372     0.09100
C999        C  0.15708880  0.30809878  0.53282935    -0.02400
C1000       C  0.14336350  0.28491709  0.51769195    -0.00700
C1001       C  0.11689828  0.28699814  0.49909556    -0.04300
C1002       C  0.10437636  0.31278911  0.49746844     0.02700
C1003       C  0.16129881  0.35821338  0.54112233     0.09500
C1004       C  0.18431267  0.30564577  0.55071393     0.35400
C1005       C  0.07724304  0.31563426  0.47975735     0.38900
C1006       C  0.16785702  0.36473237  0.58677114    -0.04700
C1007       C  0.18919092  0.38280105  0.59640741     0.02500
C1008       C  0.20345985  0.39491994  0.56034131    -0.04300
C1009       C  0.19423637  0.39108968  0.51505133    -0.00500
C1010       C  0.17401379  0.37210087  0.50539611    -0.03100
C1011       C  0.15386920  0.35134430  0.62358879     0.36200
C1012       C  0.20612137  0.40602896  0.47774197     0.39800
C1013       C  0.19752979  0.38739016  0.64306931     0.38900
C1014       C  0.16812821  0.36494518  0.45841299     0.35800
C1015       C  0.10597333  0.36251922  0.50906037     0.36500
C1016       C  0.15661395  0.25887456  0.52304902     0.39800
N1017       N  0.20395325  0.39099981  0.68049437    -0.38300
N1018       N  0.14268422  0.34058010  0.65289038    -0.39900
N1019       N  0.21496711  0.41780853  0.44729246    -0.37600
N1020       N  0.16369272  0.35893536  0.42102242    -0.40000
N1021       N  0.20595709  0.30376550  0.56509046    -0.39800
N1022       N  0.16734416  0.23822373  0.52732187    -0.37400
N1023       N  0.05552523  0.31794856  0.46587833    -0.38500
N1024       N  0.09615392  0.38369623  0.50616257    -0.40100
C1025       C  0.34361762  0.54701521  0.51971775    -0.05100
C1026       C  0.35175566  0.56307020  0.55710420     0.09100
C1027       C  0.34429748  0.55553233  0.60160796    -0.02400
C1028       C  0.32939352  0.53173773  0.60882879    -0.00700
C1029       C  0.32270713  0.51469119  0.57168753    -0.04300
C1030       C  0.32987104  0.52251970  0.52702536     0.02700
C1031       C  0.36956734  0.58700630  0.54959473     0.09500
C1032       C  0.35246608  0.57201734  0.64011451     0.35400
C1033       C  0.32510778  0.50447142  0.48888046     0.38900
C1034       C  0.35916231  0.61352063  0.55281703    -0.04700
C1035       C  0.37568977  0.63584899  0.54268714     0.02500
C1036       C  0.40248598  0.63168775  0.52773120    -0.04300
C1037       C  0.41320237  0.60522185  0.52668932    -0.00500
C1038       C  0.39689900  0.58301003  0.53812016    -0.03100
C1039       C  0.33109622  0.61772068  0.56455437     0.36200
C1040       C  0.44105629  0.60085861  0.51371678     0.39800
C1041       C  0.36442764  0.66293762  0.54450686     0.38900
C1042       C  0.40809331  0.55588908  0.53739854     0.35800
C1043       C  0.34971541  0.55561324  0.47365550     0.36500
C1044       C  0.32084313  0.52495850  0.65463503     0.39800
N1045       N  0.35543846  0.68453616  0.54598732    -0.38300
N1046       N  0.30869645  0.62103238  0.57389605    -0.39900
N1047       N  0.46328741  0.59743520  0.50339003    -0.37600
N1048       N  0.41691897  0.53421252  0.53687184    -0.40000
N1049       N  0.35895241  0.58520055  0.67081154    -0.39800
N1050       N  0.31403183  0.51966393  0.69120391    -0.37400
N1051       N  0.32185079  0.48995386  0.45843364    -0.38500
N1052       N  0.35443388  0.56254044  0.43690728    -0.40100
C1053       C  0.27749915  0.44669151  0.35000003    -0.05100
C1054       C  0.26886233  0.47372116  0.34491488     0.09100
C1055       C  0.25975426  0.48817265  0.38324579    -0.02400
C1056       C  0.26078855  0.47639082  0.42693029    -0.00700
C1057       C  0.27084350  0.44958625  0.43288727    -0.04300
C1058       C  0.27799329  0.43447702  0.39360681     0.02700
C1059       C  0.27177198  0.48816014  0.30027540     0.09500
C1060       C  0.24997525  0.51567619  0.37767798     0.35400
C1061       C  0.28455746  0.40601090  0.39750989     0.38900
C1062       C  0.25064153  0.48866547  0.26806476    -0.04700
C1063       C  0.25331389  0.50346004  0.22703272     0.02500
C1064       C  0.27728124  0.51799843  0.21792187    -0.04300
C1065       C  0.29789296  0.51831962  0.25172090    -0.00500
C1066       C  0.29526368  0.50315581  0.29204869    -0.03100
C1067       C  0.22621100  0.47371597  0.27714659     0.36200
C1068       C  0.32185435  0.53466814  0.24591740     0.39800
C1069       C  0.23153518  0.50305750  0.19406135     0.38900
C1070       C  0.31691831  0.50287595  0.32540236     0.35800
C1071       C  0.28628752  0.43163053  0.31027669     0.36500
C1072       C  0.25218533  0.49264098  0.46554223     0.39800
N1073       N  0.21406583  0.50281491  0.16788970    -0.38300
N1074       N  0.20672914  0.46175322  0.28441005    -0.39900
N1075       N  0.34102585  0.54759891  0.24148854    -0.37600
N1076       N  0.33417971  0.50254926  0.35195068    -0.40000
N1077       N  0.24218326  0.53757452  0.37308020    -0.39800
N1078       N  0.24511771  0.50578488  0.49595258    -0.37400
N1079       N  0.28942931  0.38319392  0.40051965    -0.38500
N1080       N  0.29334365  0.41967178  0.27851793    -0.40100
C1081       C  0.29026631  0.48183039  0.79705462    -0.05100
C1082       C  0.26813261  0.49918297  0.80421537     0.09100
C1083       C  0.24775058  0.50104206  0.77090141    -0.02400
C1084       C  0.24946107  0.48565015  0.73037691    -0.00700
C1085       C  0.27233662  0.46906974  0.72179017    -0.04300
C1086       C  0.29269352  0.46722023  0.75594775     0.02700
C1087       C  0.26598642  0.51468900  0.84795502     0.09500
C1088       C  0.22517261  0.51922045  0.77822175     0.35400
C1089       C  0.31704503  0.45150344  0.74851250     0.38900
C1090       C  0.28095440  0.53855859  0.85465420    -0.04700
C1091       C  0.28156736  0.55119719  0.89792429     0.02500
C1092       C  0.26708108  0.53997166  0.93477612    -0.04300
C1093       C  0.25032604  0.51729284  0.92660344    -0.00500
C1094       C  0.25020730  0.50448041  0.88370618    -0.03100
C1095       C  0.29646450  0.54951170  0.81724396     0.36200
C1096       C  0.23314865  0.50687778  0.96239007     0.39800
C1097       C  0.29816086  0.57490133  0.90470685     0.38900
C1098       C  0.23471235  0.48000607  0.87682570     0.35800
C1099       C  0.31081119  0.47924649  0.83211008     0.36500
C1100       C  0.22729832  0.48670252  0.69813747     0.39800
N1101       N  0.31135976  0.59388438  0.90981982    -0.38300
N1102       N  0.30884070  0.55816273  0.78732136    -0.39900
N1103       N  0.21946621  0.49845324  0.99082303    -0.37600
N1104       N  0.22246595  0.46042820  0.87132823    -0.40000
N1105       N  0.20728410  0.53386417  0.78413485    -0.39800
N1106       N  0.20952183  0.48754251  0.67259756    -0.37400
N1107       N  0.33654450  0.43913378  0.74247139    -0.38500
N1108       N  0.32717432  0.47715407  0.86003786    -0.40100
C1109       C  0.35569023  0.10167080  0.02427324    -0.05100
C1110       C  0.35934307  0.12650019  0.04695119     0.09100
C1111       C  0.34466548  0.13188318  0.08705418    -0.02400
C1112       C  0.32468858  0.11370090  0.10195025    -0.00700
C1113       C  0.31891374  0.09000489  0.07654380    -0.04300
C1114       C  0.33558849  0.08348722  0.03889550     0.02700
C1115       C  0.37585408  0.14842875  0.02547307     0.09500
C1116       C  0.34914546  0.15694808  0.11158598     0.35400
C1117       C  0.33082366  0.05935362  0.01230492     0.38900
C1118       C  0.36289059  0.16845315  0.99934814    -0.04700
C1119       C  0.37746965  0.19059007  0.98198283     0.02500
C1120       C  0.40581748  0.19279157  0.98960198    -0.04300
C1121       C  0.41896381  0.17121198  0.01317502    -0.00500
C1122       C  0.40393627  0.14952735  0.03148910    -0.03100
C1123       C  0.33411679  0.16639186  0.99096203     0.36200
C1124       C  0.44787537  0.17124257  0.02025761     0.39800
C1125       C  0.36244363  0.21128734  0.95770768     0.38900
C1126       C  0.41726446  0.12851425  0.05764447     0.35800
C1127       C  0.37152857  0.09568773  0.98399403     0.36500
C1128       C  0.30933642  0.12004836  0.14258532     0.39800
N1129       N  0.34996956  0.22772992  0.93910933    -0.38300
N1130       N  0.31121698  0.16463146  0.98428712    -0.39900
N1131       N  0.47093249  0.17108765  0.02609074    -0.37600
N1132       N  0.42784117  0.11173230  0.07855149    -0.40000
N1133       N  0.35264476  0.17698948  0.13105351    -0.39800
N1134       N  0.29716880  0.12538221  0.17496603    -0.37400
N1135       N  0.32770173  0.04033839  0.99003713    -0.38500
N1136       N  0.38421153  0.09098570  0.95189373    -0.40100
C1137       C  0.30866429  0.33966328  0.74659071    -0.05100
C1138       C  0.33265254  0.32447424  0.74121865     0.09100
C1139       C  0.34362418  0.32132400  0.69705752    -0.02400
C1140       C  0.33200530  0.33505558  0.65957759    -0.00700
C1141       C  0.30984691  0.35262323  0.66605422    -0.04300
C1142       C  0.29778528  0.35429456  0.70949728     0.02700
C1143       C  0.34858715  0.31588028  0.78262171     0.09500
C1144       C  0.36815519  0.30577716  0.69073047     0.35400
C1145       C  0.27610890  0.37345637  0.71731538     0.38900
C1146       C  0.35233386  0.28832267  0.79378867    -0.04700
C1147       C  0.36906181  0.28085184  0.83095407     0.02500
C1148       C  0.38129636  0.30087474  0.85830811    -0.04300
C1149       C  0.37667684  0.32840176  0.84817328    -0.00500
C1150       C  0.36094404  0.33582455  0.81010124    -0.03100
C1151       C  0.33932811  0.26767196  0.76658142     0.36200
C1152       C  0.38864121  0.34939026  0.87615163     0.39800
C1153       C  0.37441367  0.25258122  0.84008052     0.38900
C1154       C  0.35833159  0.36416738  0.79820706     0.35800
C1155       C  0.29645735  0.34199502  0.79129250     0.36500
C1156       C  0.34428812  0.33309044  0.61488255     0.39800
N1157       N  0.37875138  0.22996909  0.84699752    -0.38300
N1158       N  0.32902147  0.25117837  0.74474417    -0.39900
N1159       N  0.39779767  0.36666942  0.89772901    -0.37600
N1160       N  0.35629510  0.38677146  0.78880762    -0.40000
N1161       N  0.38772688  0.29336088  0.68567274    -0.39800
N1162       N  0.35394296  0.33169161  0.57910901    -0.37400
N1163       N  0.25916422  0.38906342  0.72405846    -0.38500
N1164       N  0.28685710  0.34397924  0.82703851    -0.40100
C1165       C  0.40733945  0.40434609  0.03392040    -0.05100
C1166       C  0.37890273  0.40537860  0.03288210     0.09100
C1167       C  0.36419122  0.38213237  0.02084631    -0.02400
C1168       C  0.37775020  0.35792886  0.01018200    -0.00700
C1169       C  0.40618912  0.35704489  0.00991612    -0.04300
C1170       C  0.42099063  0.38032634  0.02156981     0.02700
C1171       C  0.36414265  0.43100729  0.04354277     0.09500
C1172       C  0.33501740  0.38335111  0.01844536     0.35400
C1173       C  0.45018234  0.37946985  0.02101052     0.38900
C1174       C  0.36210166  0.45154534  0.01039973    -0.04700
C1175       C  0.34696589  0.47509669  0.01950382     0.02500
C1176       C  0.33374370  0.47818190  0.06176153    -0.04300
C1177       C  0.33534288  0.45741449  0.09458041    -0.00500
C1178       C  0.35068204  0.43397220  0.08559440    -0.03100
C1179       C  0.37537247  0.44825990  0.96675073     0.36200
C1180       C  0.32182914  0.46044026  0.13809722     0.39800
C1181       C  0.34433610  0.49588465  0.98492949     0.38900
C1182       C  0.35284233  0.41291887  0.11973259     0.35800
C1183       C  0.42243937  0.42797130  0.04786784     0.36500
C1184       C  0.36229661  0.33416220  0.99797144     0.39800
N1185       N  0.34209884  0.51248605  0.95744786    -0.38300
N1186       N  0.38603112  0.44560545  0.93199881    -0.39900
N1187       N  0.31102058  0.46273932  0.17279034    -0.37600
N1188       N  0.35456975  0.39608285  0.14689310    -0.40000
N1189       N  0.31176422  0.38441919  0.01649018    -0.39800
N1190       N  0.34973652  0.31534129  0.98839980    -0.37400
N1191       N  0.47347574  0.37875892  0.02042847    -0.38500
N1192       N  0.43443474  0.44683169  0.05917984    -0.40100
C1193       C  0.84712702  0.34745314  0.08728699    -0.05100
C1194       C  0.86320782  0.35363335  0.04918735     0.09100
C1195       C  0.85872189  0.37803395  0.02573080    -0.02400
C1196       C  0.83626144  0.39449575  0.03654158    -0.00700
C1197       C  0.81848384  0.38712012  0.07216578    -0.04300
C1198       C  0.82522413  0.36438670  0.09929544     0.02700
C1199       C  0.88170671  0.33256184  0.02936079     0.09500
C1200       C  0.87650543  0.38534064  0.98863625     0.35400
C1201       C  0.80950456  0.35826683  0.13950403     0.38900
C1202       C  0.87214639  0.31587398  0.99392471    -0.04700
C1203       C  0.88799304  0.29425359  0.97746859     0.02500
C1204       C  0.91374455  0.28876118  0.99659496    -0.04300
C1205       C  0.92413860  0.30698738  0.02972263    -0.00500
C1206       C  0.90805230  0.32863511  0.04616327    -0.03100
C1207       C  0.84539148  0.32049087  0.97534367     0.36200
C1208       C  0.95078023  0.30288889  0.04892886     0.39800
C1209       C  0.87725549  0.27745891  0.94119545     0.38900
C1210       C  0.91829002  0.34650146  0.08129584     0.35800
C1211       C  0.85232182  0.32285611  0.11265796     0.36500
C1212       C  0.83058737  0.41766207  0.00810686     0.39800
N1213       N  0.86829204  0.26411800  0.91256611    -0.38300
N1214       N  0.82406404  0.32428841  0.96066894    -0.39900
N1215       N  0.97201887  0.29965848  0.06436496    -0.37600
N1216       N  0.92648053  0.36074046  0.10936425    -0.40000
N1217       N  0.89078179  0.39113591  0.95916523    -0.39800
N1218       N  0.82671438  0.43591262  0.98445640    -0.37400
N1219       N  0.79714981  0.35356253  0.17188433    -0.38500
N1220       N  0.85651831  0.30317522  0.13272290    -0.40100
C1221       C  0.56378675  0.34924744  0.95791284    -0.05100
C1222       C  0.58054361  0.34087506  0.99402846     0.09100
C1223       C  0.57278022  0.31916166  0.02205130    -0.02400
C1224       C  0.54815691  0.30592701  0.01414860    -0.00700
C1225       C  0.53061127  0.31526770  0.97954576    -0.04300
C1226       C  0.53869528  0.33678551  0.95104541     0.02700
C1227       C  0.60588019  0.35579782  0.00389884     0.09500
C1228       C  0.58999769  0.31077691  0.05949980     0.35400
C1229       C  0.52182384  0.34530072  0.91320404     0.38900
C1230       C  0.60465747  0.38042371  0.02794058    -0.04700
C1231       C  0.62850853  0.39399054  0.03971638     0.02500
C1232       C  0.65387120  0.38289193  0.02763362    -0.04300
C1233       C  0.65495215  0.35844761  0.00246980    -0.00500
C1234       C  0.63096258  0.34503943  0.99050491    -0.03100
C1235       C  0.57874741  0.39134174  0.04178890     0.36200
C1236       C  0.68064077  0.34592379  0.99171377     0.39800
C1237       C  0.62675934  0.41919536  0.06497875     0.38900
C1238       C  0.63201639  0.31968476  0.96564178     0.35800
C1239       C  0.57259587  0.37056655  0.92761997     0.36500
C1240       C  0.54090115  0.28291979  0.04200927     0.39800
N1241       N  0.62520751  0.43920337  0.08531170    -0.38300
N1242       N  0.55804667  0.39994322  0.05277525    -0.39900
N1243       N  0.70109869  0.33580692  0.98333403    -0.37600
N1244       N  0.63279598  0.29939719  0.94599963    -0.40000
N1245       N  0.60373804  0.30416675  0.08940133    -0.39800
N1246       N  0.53539620  0.26445977  0.06419773    -0.37400
N1247       N  0.50841124  0.35203337  0.88295393    -0.38500
N1248       N  0.57976543  0.38748784  0.90342585    -0.40100
C1249       C  0.65878490  0.09614376  0.55295089    -0.05100
C1250       C  0.65933802  0.12457991  0.54838185     0.09100
C1251       C  0.68250170  0.13865104  0.56280520    -0.02400
C1252       C  0.70580360  0.12446421  0.57685100    -0.00700
C1253       C  0.70615803  0.09575546  0.57816020    -0.04300
C1254       C  0.68192872  0.08180741  0.56849661     0.02700
C1255       C  0.63695568  0.14008211  0.52488577     0.09500
C1256       C  0.68271002  0.16797956  0.56130841     0.35400
C1257       C  0.68125207  0.05259620  0.57137651     0.38900
C1258       C  0.61285798  0.14686932  0.54778091    -0.04700
C1259       C  0.59481929  0.16622954  0.52893511     0.02500
C1260       C  0.60176453  0.18042424  0.48870392    -0.04300
C1261       C  0.62418061  0.17110010  0.46326394    -0.00500
C1262       C  0.64140942  0.15082895  0.48097907    -0.03100
C1263       C  0.60746601  0.13518748  0.59204451     0.36200
C1264       C  0.62986478  0.18278121  0.41904376     0.39800
C1265       C  0.56980440  0.17229256  0.55221645     0.38900
C1266       C  0.66460209  0.14186505  0.45496645     0.35800
C1267       C  0.63482522  0.08155405  0.53950802     0.36500
C1268       C  0.72989026  0.13972270  0.58775762     0.39800
N1269       N  0.54975282  0.17693271  0.57073707    -0.38300
N1270       N  0.60324071  0.12589339  0.62744284    -0.39900
N1271       N  0.63435870  0.19213690  0.38378498    -0.37600
N1272       N  0.68311567  0.13460473  0.43435210    -0.40000
N1273       N  0.68285246  0.19134581  0.55999903    -0.39800
N1274       N  0.74907299  0.15210221  0.59558684    -0.37400
N1275       N  0.68067414  0.02926849  0.57374975    -0.38500
N1276       N  0.61564069  0.06994458  0.52883091    -0.40100
C1277       C  0.47107461  0.36375114  0.49130814    -0.05100
C1278       C  0.44901444  0.35204915  0.51380960     0.09100
C1279       C  0.45014915  0.32454509  0.52626609    -0.02400
C1280       C  0.47297658  0.30866309  0.51545790    -0.00700
C1281       C  0.49467648  0.31991846  0.49057137    -0.04300
C1282       C  0.49354164  0.34780975  0.47894652     0.02700
C1283       C  0.42422654  0.36860355  0.52308380     0.09500
C1284       C  0.42769035  0.31247990  0.55016409     0.35400
C1285       C  0.51490564  0.36030729  0.45285132     0.38900
C1286       C  0.40633862  0.37499015  0.48713196    -0.04700
C1287       C  0.38240821  0.38955181  0.49594393     0.02500
C1288       C  0.37628298  0.39809629  0.54067138    -0.04300
C1289       C  0.39473239  0.39264661  0.57634709    -0.00500
C1290       C  0.41855317  0.37785908  0.56757923    -0.03100
C1291       C  0.41232688  0.36602019  0.44114925     0.36200
C1292       C  0.38849962  0.40083499  0.62266197     0.39800
C1293       C  0.36398943  0.39569204  0.45894552     0.38900
C1294       C  0.43692609  0.37149807  0.60456686     0.35800
C1295       C  0.47054193  0.39239676  0.48078407     0.36500
C1296       C  0.47422707  0.28093623  0.53136704     0.39800
N1297       N  0.34938985  0.40065609  0.42931888    -0.38300
N1298       N  0.41726130  0.35894659  0.40448641    -0.39900
N1299       N  0.38354404  0.40732851  0.65962199    -0.37600
N1300       N  0.45150333  0.36622187  0.63408813    -0.40000
N1301       N  0.40992875  0.30270871  0.56940894    -0.39800
N1302       N  0.47520848  0.25886992  0.54426590    -0.37400
N1303       N  0.53187910  0.37039078  0.43206296    -0.38500
N1304       N  0.47007060  0.41524799  0.47254435    -0.40100
C1305       C  0.52845257  0.27233612  0.67738166    -0.05100
C1306       C  0.53487173  0.24972447  0.70452416     0.09100
C1307       C  0.55433649  0.23098243  0.68900201    -0.02400
C1308       C  0.56639577  0.23420610  0.64570505    -0.00700
C1309       C  0.55757732  0.25507308  0.61637539    -0.04300
C1310       C  0.53952188  0.27487844  0.63341871     0.02700
C1311       C  0.52292500  0.24730983  0.75124514     0.09500
C1312       C  0.56169532  0.20824978  0.71754736     0.35400
C1313       C  0.53327713  0.29865997  0.60647790     0.38900
C1314       C  0.49716671  0.23589326  0.75768775    -0.04700
C1315       C  0.48474533  0.23686624  0.80107460     0.02500
C1316       C  0.49779578  0.24978910  0.83785478    -0.04300
C1317       C  0.52437889  0.25937483  0.83192168    -0.00500
C1318       C  0.53676316  0.25831074  0.78881296    -0.03100
C1319       C  0.48302074  0.22424258  0.71919019     0.36200
C1320       C  0.53926576  0.27037568  0.87017741     0.39800
C1321       C  0.45819529  0.22551427  0.80746060     0.38900
C1322       C  0.56335332  0.26974243  0.78248631     0.35800
C1323       C  0.51072295  0.29323840  0.69507590     0.36500
C1324       C  0.58828295  0.21654510  0.63216376     0.39800
N1325       N  0.43711266  0.21619119  0.81269780    -0.38300
N1326       N  0.47168159  0.21505604  0.68838868    -0.39900
N1327       N  0.55191104  0.27888711  0.90002880    -0.37600
N1328       N  0.58450327  0.27891720  0.77721163    -0.40000
N1329       N  0.56738441  0.19006004  0.74038426    -0.39800
N1330       N  0.60626855  0.20280927  0.62228903    -0.37400
N1331       N  0.52852874  0.31787528  0.58550985    -0.38500
N1332       N  0.49677617  0.31001964  0.70933403    -0.40100
C1333       C  0.48005703  0.26712619  0.28743162    -0.05100
C1334       C  0.48879262  0.24873074  0.25383963     0.09100
C1335       C  0.50868635  0.22930984  0.26518300    -0.02400
C1336       C  0.52134751  0.22982850  0.30861319    -0.00700
C1337       C  0.51457133  0.25020040  0.34052392    -0.04300
C1338       C  0.49270070  0.26779943  0.33048690     0.02700
C1339       C  0.47865497  0.25174113  0.20567933     0.09500
C1340       C  0.51683414  0.20950596  0.23144659     0.35400
C1341       C  0.48291278  0.28676725  0.36447000     0.38900
C1342       C  0.48862782  0.27288523  0.17833004    -0.04700
C1343       C  0.47842268  0.27700023  0.13396580     0.02500
C1344       C  0.45937239  0.25895428  0.11508377    -0.04300
C1345       C  0.44870637  0.23831340  0.14290994    -0.00500
C1346       C  0.45805730  0.23499537  0.18827216    -0.03100
C1347       C  0.50964799  0.29036801  0.19585343     0.36200
C1348       C  0.42855190  0.22014050  0.12471573     0.39800
C1349       C  0.48667242  0.30062316  0.10839435     0.38900
C1350       C  0.44643967  0.21446216  0.21721570     0.35800
C1351       C  0.45856441  0.28611736  0.27697309     0.36500
C1352       C  0.54204751  0.21015054  0.31957103     0.39800
N1353       N  0.49296406  0.31966190  0.08829633    -0.38300
N1354       N  0.52647390  0.30420765  0.20987661    -0.39900
N1355       N  0.41236197  0.20568259  0.11034554    -0.37600
N1356       N  0.43710464  0.19816658  0.24047857    -0.40000
N1357       N  0.52323771  0.19367407  0.20444945    -0.39800
N1358       N  0.55854527  0.19439868  0.32835756    -0.37400
N1359       N  0.47468579  0.30198160  0.39104663    -0.38500
N1360       N  0.44150131  0.30131370  0.26853316    -0.40100
C1361       C  0.64686421  0.28688923  0.27437545    -0.05100
C1362       C  0.66970278  0.30273881  0.28360948     0.09100
C1363       C  0.67820949  0.30631823  0.32908027    -0.02400
C1364       C  0.66245963  0.29639680  0.36546041    -0.00700
C1365       C  0.63786118  0.28281555  0.35644222    -0.04300
C1366       C  0.63110577  0.27682718  0.31044913     0.02700
C1367       C  0.68126254  0.31998497  0.24661478     0.09500
C1368       C  0.70226550  0.32192442  0.33836481     0.35400
C1369       C  0.60726424  0.26126470  0.29963078     0.38900
C1370       C  0.66859547  0.34481779  0.23670383    -0.04700
C1371       C  0.67895717  0.36174890  0.20267701     0.02500
C1372       C  0.70270934  0.35445716  0.17879192    -0.04300
C1373       C  0.71444762  0.32880921  0.18666916    -0.00500
C1374       C  0.70386178  0.31170298  0.22090013    -0.03100
C1375       C  0.64463233  0.35295519  0.26158600     0.36200
C1376       C  0.73718406  0.31994496  0.15960495     0.39800
C1377       C  0.66428940  0.38627999  0.19110171     0.38900
C1378       C  0.71611316  0.28562705  0.22979864     0.35800
C1379       C  0.63852179  0.28263634  0.22747855     0.36500
C1380       C  0.67063886  0.30238102  0.41186840     0.39800
N1381       N  0.65246607  0.40576171  0.18208733    -0.38300
N1382       N  0.62547884  0.35942236  0.28122925    -0.39900
N1383       N  0.75509184  0.31255153  0.13764415    -0.37600
N1384       N  0.72584217  0.26477323  0.23698007    -0.40000
N1385       N  0.72145931  0.33439385  0.34563663    -0.39800
N1386       N  0.67722240  0.30733130  0.44880496    -0.37400
N1387       N  0.58818466  0.24911343  0.29034124    -0.38500
N1388       N  0.63183495  0.27941334  0.19006712    -0.40100
C1389       C  0.84738310  0.62736264  0.57790036    -0.05100
C1390       C  0.86219503  0.62061813  0.53847805     0.09100
C1391       C  0.85717063  0.59583459  0.51650906    -0.02400
C1392       C  0.83554575  0.57933708  0.53065678    -0.00700
C1393       C  0.81860033  0.58748539  0.56719226    -0.04300
C1394       C  0.82599175  0.61069730  0.59258636     0.02700
C1395       C  0.88092227  0.64089282  0.51738762     0.09500
C1396       C  0.87375504  0.58786484  0.47806766     0.35400
C1397       C  0.81209413  0.61703463  0.63464924     0.38900
C1398       C  0.90797815  0.64306211  0.53146043    -0.04700
C1399       C  0.92440955  0.66416882  0.51462590     0.02500
C1400       C  0.91359301  0.68392691  0.48455439    -0.04300
C1401       C  0.88749167  0.67925723  0.46605620    -0.00500
C1402       C  0.87124112  0.65817582  0.48289340    -0.03100
C1403       C  0.91876302  0.62368877  0.56376983     0.36200
C1404       C  0.87714881  0.69594224  0.42926800     0.39800
C1405       C  0.95242310  0.66490590  0.52803791     0.38900
C1406       C  0.84411510  0.65458846  0.46545873     0.35800
C1407       C  0.85369564  0.65197195  0.60250008     0.36500
C1408       C  0.83047763  0.55463921  0.50582013     0.39800
N1409       N  0.97489123  0.66448034  0.53840242    -0.38300
N1410       N  0.92740161  0.60819432  0.58947225    -0.39900
N1411       N  0.86886747  0.70920528  0.39992820    -0.37600
N1412       N  0.82249103  0.65157654  0.45164624    -0.40000
N1413       N  0.88704341  0.58152521  0.44748826    -0.39800
N1414       N  0.82742739  0.53497134  0.48521728    -0.37400
N1415       N  0.80137671  0.62180601  0.66870980    -0.38500
N1416       N  0.85886398  0.67162571  0.62201326    -0.40100
C1417       C  0.65030526  0.43923796  0.57357444    -0.05100
C1418       C  0.66428025  0.41717980  0.55424296     0.09100
C1419       C  0.69231386  0.41905400  0.54735228    -0.02400
C1420       C  0.70596016  0.44349170  0.55643075    -0.00700
C1421       C  0.69179157  0.46619508  0.57416051    -0.04300
C1422       C  0.66409802  0.46318985  0.58500910     0.02700
C1423       C  0.64926323  0.39242545  0.53911497     0.09500
C1424       C  0.70708284  0.39572025  0.53047680     0.35400
C1425       C  0.64985560  0.48407611  0.61017781     0.38900
C1426       C  0.64555087  0.38741182  0.49223270    -0.04700
C1427       C  0.63134523  0.36439341  0.47736010     0.02500
C1428       C  0.62007581  0.34610793  0.50943305    -0.04300
C1429       C  0.62353810  0.35156801  0.55664570    -0.00500
C1430       C  0.63839197  0.37433885  0.57122787    -0.03100
C1431       C  0.65648749  0.40609784  0.45902992     0.36200
C1432       C  0.61121266  0.33438398  0.59065912     0.39800
C1433       C  0.62905612  0.35963005  0.42866771     0.38900
C1434       C  0.64262629  0.37917045  0.61949431     0.35800
C1435       C  0.62150942  0.43742905  0.58115998     0.36500
C1436       C  0.73453963  0.44493222  0.54690644     0.39800
N1437       N  0.62725480  0.35603391  0.38980897    -0.38300
N1438       N  0.66535311  0.42090287  0.43260544    -0.39900
N1439       N  0.60136871  0.32076822  0.61790678    -0.37600
N1440       N  0.64595487  0.38311451  0.65797131    -0.40000
N1441       N  0.71879241  0.37708158  0.51703601    -0.39800
N1442       N  0.75739393  0.44563851  0.53952107    -0.37400
N1443       N  0.63856306  0.50059552  0.63066362    -0.38500
N1444       N  0.59855690  0.43594902  0.58728893    -0.40100
C1445       C  0.57237419  0.64109969  0.45112439    -0.05100
C1446       C  0.57886595  0.63374008  0.49629238     0.09100
C1447       C  0.56044540  0.63950656  0.53169630    -0.02400
C1448       C  0.53558553  0.65225684  0.52187188    -0.00700
C1449       C  0.52919988  0.65972895  0.47674235    -0.04300
C1450       C  0.54764102  0.65405541  0.44135856     0.02700
C1451       C  0.60487779  0.61932896  0.50635532     0.09500
C1452       C  0.56728074  0.63260562  0.57830242     0.35400
C1453       C  0.54083410  0.66079860  0.39462319     0.38900
C1454       C  0.62910137  0.63393726  0.51062231    -0.04700
C1455       C  0.65348009  0.62033311  0.52065046     0.02500
C1456       C  0.65374820  0.59201479  0.52719748    -0.04300
C1457       C  0.62957884  0.57738338  0.52201181    -0.00500
C1458       C  0.60528475  0.59096968  0.51140077    -0.03100
C1459       C  0.62873261  0.66311069  0.50610249     0.36200
C1460       C  0.62976399  0.54825551  0.52692042     0.39800
C1461       C  0.67807138  0.63570380  0.52636228     0.38900
C1462       C  0.58053938  0.57584236  0.50604429     0.35800
C1463       C  0.59117409  0.63517664  0.41466983     0.36500
C1464       C  0.51664568  0.65809542  0.55817435     0.39800
N1465       N  0.69768665  0.64796413  0.53090108    -0.38300
N1466       N  0.62840496  0.68639664  0.50264633    -0.39900
N1467       N  0.62978722  0.52497710  0.53038056    -0.37600
N1468       N  0.56071200  0.56390051  0.50178863    -0.40000
N1469       N  0.57280382  0.62715394  0.61550103    -0.39800
N1470       N  0.50129646  0.66281620  0.58674004    -0.37400
N1471       N  0.53547343  0.66596814  0.35723851    -0.38500
N1472       N  0.60625467  0.63048600  0.38568482    -0.40100
C1473       C  0.77458679  0.49817320  0.38309966    -0.05100
C1474       C  0.76047806  0.51117316  0.34771041     0.09100
C1475       C  0.74581894  0.53503223  0.35702419    -0.02400
C1476       C  0.74394021  0.54499451  0.40216410    -0.00700
C1477       C  0.75694540  0.53117549  0.43836078    -0.04300
C1478       C  0.77268294  0.50785307  0.42815925     0.02700
C1479       C  0.75742613  0.49705491  0.30280054     0.09500
C1480       C  0.73157406  0.54852535  0.32030585     0.35400
C1481       C  0.78658849  0.49310163  0.46390798     0.38900
C1482       C  0.73864358  0.47590804  0.29904452    -0.04700
C1483       C  0.73564088  0.46179801  0.25768142     0.02500
C1484       C  0.75111707  0.46897106  0.21907025    -0.04300
C1485       C  0.77028473  0.48995469  0.22310902    -0.00500
C1486       C  0.77348728  0.50385093  0.26497304    -0.03100
C1487       C  0.72219197  0.46877540  0.33804902     0.36200
C1488       C  0.78580147  0.49818357  0.18376191     0.39800
C1489       C  0.71670213  0.43960223  0.25551477     0.38900
C1490       C  0.79307909  0.52532528  0.26911454     0.35800
C1491       C  0.79007980  0.47390091  0.37324553     0.36500
C1492       C  0.72665690  0.56802473  0.41155964     0.39800
N1493       N  0.70148266  0.42198767  0.25474730    -0.38300
N1494       N  0.70917463  0.46317182  0.36925156    -0.39900
N1495       N  0.79809138  0.50476467  0.15226014    -0.37600
N1496       N  0.80871651  0.54248541  0.27238387    -0.40000
N1497       N  0.72029088  0.55924575  0.29086336    -0.39800
N1498       N  0.71263550  0.58626222  0.41884728    -0.37400
N1499       N  0.79787438  0.48121955  0.49205635    -0.38500
N1500       N  0.80231171  0.45450625  0.36529810    -0.40100
C1501       C  0.73908633  0.49925906  0.79967004    -0.05100
C1502       C  0.75790900  0.47795930  0.80335845     0.09100
C1503       C  0.77489525  0.47186884  0.76624833    -0.02400
C1504       C  0.77226990  0.48626567  0.72484094    -0.00700
C1505       C  0.75293003  0.50725779  0.72072613    -0.04300
C1506       C  0.73688918  0.51409969  0.75895213     0.02700
C1507       C  0.76057269  0.46333276  0.84780302     0.09500
C1508       C  0.79492391  0.45065098  0.77075613     0.35400
C1509       C  0.71821269  0.53671425  0.75691746     0.38900
C1510       C  0.74626276  0.43923491  0.85583364    -0.04700
C1511       C  0.74462063  0.42848814  0.90042959     0.02500
C1512       C  0.75727625  0.44191311  0.93733341    -0.04300
C1513       C  0.77275951  0.46541716  0.92833228    -0.00500
C1514       C  0.77463642  0.47572711  0.88378685    -0.03100
C1515       C  0.73230727  0.42618274  0.81839260     0.36200
C1516       C  0.78620735  0.47983822  0.96496868     0.39800
C1517       C  0.72805684  0.40496417  0.90859255     0.38900
C1518       C  0.79021615  0.49991833  0.87504091     0.35800
C1519       C  0.72175182  0.50578023  0.83797647     0.36500
C1520       C  0.78859603  0.47854281  0.68600804     0.39800
N1521       N  0.71465880  0.38627645  0.91483681    -0.38300
N1522       N  0.72125420  0.41576620  0.78841773    -0.39900
N1523       N  0.79686500  0.49150738  0.99403400    -0.37600
N1524       N  0.80258783  0.51919529  0.86787238    -0.40000
N1525       N  0.81093352  0.43373759  0.77452086    -0.39800
N1526       N  0.80159329  0.47234106  0.65498956    -0.37400
N1527       N  0.70329028  0.55472667  0.75601086    -0.38500
N1528       N  0.70794894  0.51090261  0.86853932    -0.40100
C1529       C  0.64962421  0.82276609  0.97215934    -0.05100
C1530       C  0.64095297  0.83853758  0.00960342     0.09100
C1531       C  0.61531812  0.83369506  0.02853711    -0.02400
C1532       C  0.59969387  0.81160938  0.01314258    -0.00700
C1533       C  0.60948519  0.79439715  0.97834455    -0.04300
C1534       C  0.63389785  0.80085284  0.95650542     0.02700
C1535       C  0.66012181  0.85804677  0.03200248     0.09500
C1536       C  0.60565888  0.85070750  0.06533951     0.35400
C1537       C  0.64342343  0.78408616  0.91926046     0.38900
C1538       C  0.66291985  0.88465887  0.01586619    -0.04700
C1539       C  0.68355206  0.90159937  0.03317204     0.02500
C1540       C  0.70169164  0.89209030  0.06718347    -0.04300
C1541       C  0.69654010  0.86638371  0.08680064    -0.00500
C1542       C  0.67644024  0.84930664  0.06853012    -0.03100
C1543       C  0.64490116  0.89431633  0.98043736     0.36200
C1544       C  0.71168573  0.85740327  0.12633718     0.39800
C1545       C  0.68606747  0.92847292  0.01463722     0.38900
C1546       C  0.67317315  0.82215869  0.08618085     0.35800
C1547       C  0.67550397  0.82817708  0.95144456     0.36500
C1548       C  0.57428573  0.80557902  0.03505031     0.39800
N1549       N  0.68702453  0.94992252  0.99929057    -0.38300
N1550       N  0.63046722  0.90203024  0.95226814    -0.39900
N1551       N  0.72355239  0.85027882  0.15812600    -0.37600
N1552       N  0.67054486  0.80042859  0.09989213    -0.40000
N1553       N  0.59797952  0.86435260  0.09466975    -0.39800
N1554       N  0.55401859  0.80080051  0.05258853    -0.37400
N1555       N  0.65098009  0.77078663  0.88939755    -0.38500
N1556       N  0.69619518  0.83251718  0.93503931    -0.40100
C1557       C  0.46362543  0.64784439  0.02369675    -0.05100
C1558       C  0.44655949  0.64088214  0.98717454     0.09100
C1559       C  0.45349298  0.64826252  0.94239214    -0.02400
C1560       C  0.47741590  0.66269676  0.93416060    -0.00700
C1561       C  0.49505627  0.66910469  0.97059474    -0.04300
C1562       C  0.48809211  0.66128948  0.01542866     0.02700
C1563       C  0.42080276  0.62638704  0.99613564     0.09500
C1564       C  0.43581100  0.64112308  0.90492430     0.35400
C1565       C  0.50659309  0.66550131  0.05288819     0.38900
C1566       C  0.39687214  0.64128242  0.00261626    -0.04700
C1567       C  0.37264931  0.62784460  0.01248711     0.02500
C1568       C  0.37250275  0.59946246  0.01790775    -0.04300
C1569       C  0.39648396  0.58454799  0.01150081    -0.00500
C1570       C  0.42052102  0.59795980  0.99991558    -0.03100
C1571       C  0.39760004  0.67058659  0.00179222     0.36200
C1572       C  0.39652492  0.55547834  0.01770199     0.39800
C1573       C  0.34831311  0.64348158  0.02036381     0.38900
C1574       C  0.44518507  0.58269060  0.99328469     0.35800
C1575       C  0.45578293  0.64133630  0.07002136     0.36500
C1576       C  0.48327767  0.67165351  0.88817794     0.39800
N1577       N  0.32899582  0.65609129  0.02675519    -0.38300
N1578       N  0.39836996  0.69394382  0.00171469    -0.39900
N1579       N  0.39667475  0.53230610  0.02279894    -0.37600
N1580       N  0.46492041  0.57055702  0.98804212    -0.40000
N1581       N  0.42165150  0.63535005  0.87507413    -0.39800
N1582       N  0.48766941  0.67879054  0.85147886    -0.37400
N1583       N  0.52112077  0.66810638  0.08345093    -0.38500
N1584       N  0.44936574  0.63632575  0.10687565    -0.40100
C1585       C  0.51765629  0.72782567  0.15416749    -0.05100
C1586       C  0.53068774  0.71580896  0.19151511     0.09100
C1587       C  0.55631004  0.70392404  0.18592211    -0.02400
C1588       C  0.56946538  0.70499538  0.14327237    -0.00700
C1589       C  0.55674123  0.71761441  0.10545012    -0.04300
C1590       C  0.53029760  0.72854837  0.11133619     0.02700
C1591       C  0.51682454  0.71537173  0.23662007     0.09500
C1592       C  0.56887915  0.69018419  0.22410416     0.35400
C1593       C  0.51491798  0.73926120  0.07321577     0.38900
C1594       C  0.49820899  0.69484257  0.24628386    -0.04700
C1595       C  0.48391757  0.69518080  0.28764681     0.02500
C1596       C  0.48903295  0.71550720  0.32084220    -0.04300
C1597       C  0.50737085  0.73641680  0.31046421    -0.00500
C1598       C  0.52090940  0.73647633  0.26820498    -0.03100
C1599       C  0.49402876  0.67314109  0.21369112     0.36200
C1600       C  0.51341117  0.75720349  0.34378376     0.39800
C1601       C  0.46386860  0.67445763  0.29569820     0.38900
C1602       C  0.53927909  0.75816539  0.25710620     0.35800
C1603       C  0.49075327  0.73900590  0.15983196     0.36500
C1604       C  0.59612330  0.69321670  0.13894506     0.39800
N1605       N  0.44801313  0.65783518  0.30210139    -0.38300
N1606       N  0.49082195  0.65575237  0.18784814    -0.39900
N1607       N  0.51832730  0.77378995  0.37034638    -0.37600
N1608       N  0.55389314  0.77545503  0.24795790    -0.40000
N1609       N  0.57875518  0.67907357  0.25455291    -0.39800
N1610       N  0.61736647  0.68371127  0.13563166    -0.37400
N1611       N  0.50229772  0.74774362  0.04323536    -0.38500
N1612       N  0.46929350  0.74777729  0.16448513    -0.40100
C1613       C  0.50682330  0.75119954  0.77002461    -0.05100
C1614       C  0.50843713  0.73061957  0.73693404     0.09100
C1615       C  0.52383008  0.70724578  0.74544985    -0.02400
C1616       C  0.53694044  0.70392392  0.78755631    -0.00700
C1617       C  0.53571038  0.72465629  0.82117355    -0.04300
C1618       C  0.52054692  0.74838589  0.81194732     0.02700
C1619       C  0.49459013  0.73354188  0.69211659     0.09500
C1620       C  0.52624077  0.68652153  0.71054867     0.35400
C1621       C  0.51926152  0.77016656  0.84501392     0.38900
C1622       C  0.50833442  0.74553564  0.65564613    -0.04700
C1623       C  0.49738948  0.74455944  0.61144356     0.02500
C1624       C  0.47214681  0.73188440  0.60345937    -0.04300
C1625       C  0.45768601  0.72129014  0.64090695    -0.00500
C1626       C  0.46912688  0.72179583  0.68495869    -0.03100
C1627       C  0.53445172  0.75781692  0.66344244     0.36200
C1628       C  0.43185056  0.70830969  0.63412120     0.39800
C1629       C  0.51275634  0.75610613  0.57427132     0.38900
C1630       C  0.45541653  0.70895205  0.72269081     0.35800
C1631       C  0.49112905  0.77533560  0.76057387     0.36500
C1632       C  0.55036859  0.67832929  0.79659948     0.39800
N1633       N  0.52523489  0.76510923  0.54475662    -0.38300
N1634       N  0.55527278  0.76756114  0.66971824    -0.39900
N1635       N  0.41119664  0.69799341  0.62896377    -0.37600
N1636       N  0.44466041  0.69853010  0.75279751    -0.40000
N1637       N  0.52837036  0.67002108  0.68278539    -0.39800
N1638       N  0.56090563  0.65785776  0.80373209    -0.37400
N1639       N  0.51813960  0.78757308  0.87135150    -0.38500
N1640       N  0.47859350  0.79455686  0.75283637    -0.40100
C1641       C  0.68903231  0.66875609  0.83396545    -0.05100
C1642       C  0.68006130  0.67494977  0.78944848     0.09100
C1643       C  0.65979628  0.69470320  0.78348994    -0.02400
C1644       C  0.64598058  0.70520766  0.82168343    -0.00700
C1645       C  0.65266570  0.69628880  0.86601650    -0.04300
C1646       C  0.67559190  0.67977661  0.87221608     0.02700
C1647       C  0.68804652  0.65716253  0.75012074     0.09500
C1648       C  0.65190947  0.70268076  0.73784953     0.35400
C1649       C  0.68373750  0.67220365  0.91793067     0.38900
C1650       C  0.67204851  0.63449347  0.73966424    -0.04700
C1651       C  0.67989208  0.61636037  0.70503461     0.02500
C1652       C  0.70365815  0.62092172  0.67952839    -0.04300
C1653       C  0.71818714  0.64505769  0.68701631    -0.00500
C1654       C  0.71087068  0.66269074  0.72316803    -0.03100
C1655       C  0.64718658  0.62994264  0.76435672     0.36200
C1656       C  0.74028231  0.65203790  0.65727560     0.39800
C1657       C  0.66275915  0.59342083  0.69465939     0.38900
C1658       C  0.72686426  0.68640627  0.73297025     0.35800
C1659       C  0.71063784  0.64934869  0.84033851     0.36500
C1660       C  0.62382287  0.72399005  0.81515381     0.39800
N1661       N  0.64908356  0.57515419  0.68652093    -0.38300
N1662       N  0.62716972  0.62640758  0.78348564    -0.39900
N1663       N  0.75748924  0.65809157  0.63288636    -0.37600
N1664       N  0.73967474  0.70530009  0.74102594    -0.40000
N1665       N  0.64569952  0.70905648  0.70138357    -0.39800
N1666       N  0.60632139  0.73914486  0.80952093    -0.37400
N1667       N  0.69012012  0.66618582  0.95448674    -0.38500
N1668       N  0.72784269  0.63378908  0.84538629    -0.40100
C1669       C  0.61926738  0.58430408  0.04985420    -0.05100
C1670       C  0.63956765  0.57291515  0.02206159     0.09100
C1671       C  0.64562130  0.58491522  0.97983253    -0.02400
C1672       C  0.63199124  0.60850902  0.96601290    -0.00700
C1673       C  0.61316650  0.62109804  0.99523665    -0.04300
C1674       C  0.60631466  0.60858198  0.03672712     0.02700
C1675       C  0.65502465  0.54847093  0.03714699     0.09500
C1676       C  0.66632634  0.57323811  0.95093196     0.35400
C1677       C  0.58620560  0.62078920  0.06603199     0.38900
C1678       C  0.64930731  0.52299097  0.01803438    -0.04700
C1679       C  0.66530904  0.50034602  0.02928676     0.02500
C1680       C  0.68654854  0.50272399  0.06149783    -0.04300
C1681       C  0.69219860  0.52840758  0.08058795    -0.00500
C1682       C  0.67664393  0.55117668  0.06806206    -0.03100
C1683       C  0.62695549  0.52018417  0.98644796     0.36200
C1684       C  0.71361737  0.53152178  0.11386351     0.39800
C1685       C  0.66063881  0.47496755  0.00571808     0.38900
C1686       C  0.68299661  0.57757399  0.08666409     0.35800
C1687       C  0.61188497  0.57105349  0.09196908     0.36500
C1688       C  0.63690881  0.61929187  0.92099287     0.39800
N1689       N  0.65697097  0.45487319  0.98647814    -0.38300
N1690       N  0.60909581  0.51800794  0.96133165    -0.39900
N1691       N  0.73072632  0.53406814  0.14034406    -0.37600
N1692       N  0.68801662  0.59867011  0.10139786    -0.40000
N1693       N  0.68286924  0.56397137  0.92792752    -0.39800
N1694       N  0.64082297  0.62704434  0.88449003    -0.37400
N1695       N  0.57012689  0.63038042  0.08957863    -0.38500
N1696       N  0.60596213  0.56035488  0.12547266    -0.40100
loop_ 
_geom_bond_atom_site_label_1 
_geom_bond_atom_site_label_2 
_geom_bond_distance 
_geom_bond_site_symmetry_2 
_ccdc_geom_bond_type 
O1          Cr19   1.987       .  S
O1            C9   1.262       .  A
O2          Cr19   1.993   1_554  S
O2            C3   1.261       .  A
C3            O4   1.268       .  A
C3         C1589   1.503       .  S
O4          Cr20   2.005   1_554  S
O5          Cr20   2.006       .  S
O5            C6   1.262       .  A
C6            O7   1.257       .  A
C6         C1673   1.481       .  S
O7          Cr21   1.985       .  S
O8          Cr21   2.004       .  S
O8            C9   1.265       .  A
C9         C1561   1.490       .  S
O10         Cr19   2.015       .  S
O10          C18   1.264       .  A
O11         Cr19   2.003       .  S
O11          C12   1.268       .  A
C12          O13   1.265       .  A
C12        C1533   1.488       .  S
O13         Cr20   2.004       .  S
O14         Cr20   2.003       .  S
O14          C15   1.267       .  A
C15          O16   1.265       .  A
C15        C1645   1.484       .  S
O16         Cr21   1.993       .  S
O17         Cr21   1.959       .  S
O17          C18   1.254       .  A
C18        C1617   1.493       .  S
Cr19         O22   1.776       .  S
Cr20         O22   1.769       .  S
Cr21         O22   1.764       .  S
O23         Cr41   2.026       .  S
O23          C31   1.269       .  A
O24         Cr41   1.960       .  S
O24          C25   1.259       .  A
C25          O26   1.276       .  A
C25        C1477   1.498       .  S
O26         Cr42   2.039       .  S
O27         Cr42   1.987       .  S
O27          C28   1.259       .  A
C28          O29   1.260       .  A
C28        C1456   1.488       .  S
O29         Cr43   1.999       .  S
O30         Cr43   1.977       .  S
O30          C31   1.261       .  A
C31        C1421   1.503       .  S
O32         Cr41   1.993       .  S
O32          C40   1.266       .  A
O33         Cr41   2.029       .  S
O33          C34   1.267       .  A
C34          O35   1.260       .  A
C34        C1393   1.509       .  S
O35         Cr42   1.983       .  S
O36         Cr42   2.041       .  S
O36          C37   1.274       .  A
C37          O38   1.261       .  A
C37        C1652   1.497       .  S
O38         Cr43   1.962       .  S
O39         Cr43   2.000       .  S
O39          C40   1.265       .  A
C40        C1505   1.491       .  S
Cr41         O44   1.778       .  S
Cr42         O44   1.778       .  S
Cr43         O44   1.766       .  S
O45         Cr63   1.960       .  S
O45          C53   1.258       .  A
O46         Cr63   2.029       .  S
O46          C47   1.272       .  A
C47          O48   1.259       .  A
C47        C1281   1.502       .  S
O48         Cr64   1.970       .  S
O49         Cr64   1.996       .  S
O49          C50   1.259       .  A
C50          O51   1.257       .  A
C50        C1428   1.505       .  S
O51         Cr65   1.984       .  S
O52         Cr65   2.036       .  S
O52          C53   1.273       .  A
C53        C1309   1.493       .  S
O54         Cr63   2.038       .  S
O54          C62   1.270       .  A
O55         Cr63   2.005       .  S
O55          C56   1.267       .  A
C56          O57   1.265       .  A
C56        C1337   1.499       .  S
O57         Cr64   2.003       .  S
O58         Cr64   1.963       .  S
O58          C59   1.262       .  A
C59          O60   1.276       .  A
C59        C1365   1.503       .  S
O60         Cr65   2.036       .  S
O61         Cr65   1.969       .  S
O61          C62   1.257       .  A
C62        C1260   1.507       .  S
Cr63         O66   1.777       .  S
Cr64         O66   1.765       .  S
Cr65         O66   1.774       .  S
O67         Cr85   1.954       .  S
O67          C75   1.255   1_554  A
O68         Cr85   2.029       .  S
O68          C69   1.274       .  A
C69          O70   1.260       .  A
C69        C1680   1.494       .  S
O70         Cr86   1.962       .  S
O71         Cr86   1.993       .  S
O71          C72   1.259       .  A
C72          O73   1.258       .  A
C72        C1232   1.484       .  S
O73         Cr87   1.983       .  S
O74         Cr87   2.039   1_556  S
O74          C75   1.273       .  A
C75        C1512   1.497       .  S
O76         Cr85   2.034       .  S
O76          C84   1.272       .  A
O77         Cr85   1.994       .  S
O77          C78   1.263       .  A
C78          O79   1.261       .  A
C78        C1484   1.491       .  S
O79         Cr86   1.995       .  S
O80         Cr86   1.958       .  S
O80          C81   1.259       .  A
C81          O82   1.276       .  A
C81        C1372   1.491       .  S
O82         Cr87   2.050       .  S
O83         Cr87   1.972       .  S
O83          C84   1.260       .  A
C84        C1197   1.503       .  S
Cr85         O88   1.767       .  S
Cr86         O88   1.761       .  S
Cr87         O88   1.774       .  S
O89        Cr107   2.013       .  S
O89          C97   1.268       .  A
O90        Cr107   1.966   1_554  S
O90          C91   1.259       .  A
C91          O92   1.273       .  A
C91        C1344   1.495       .  S
O92        Cr108   2.038   1_554  S
O93        Cr108   1.972   1_554  S
O93          C94   1.254   1_554  A
C94          O95   1.261       .  A
C94        C1169   1.478   1_556  S
O95        Cr109   2.003       .  S
O96        Cr109   1.967       .  S
O96          C97   1.259       .  A
C97        C1225   1.480       .  S
O98        Cr107   2.002       .  S
O98         C106   1.267       .  A
O99        Cr107   2.026       .  S
O99         C100   1.268       .  A
C100        O101   1.255       .  A
C100       C1120   1.519       .  S
O101       Cr108   1.966       .  S
O102       Cr108   2.038       .  S
O102        C103   1.274       .  A
C103        O104   1.260       .  A
C103       C1148   1.488       .  S
O104       Cr109   1.969       .  S
O105       Cr109   2.003       .  S
O105        C106   1.265       .  A
C106       C1316   1.489       .  S
Cr107       O110   1.775       .  S
Cr108       O110   1.773       .  S
Cr109       O110   1.770       .  S
O111       Cr129   1.986       .  S
O111        C119   1.262       .  A
O112       Cr129   1.996       .  S
O112        C113   1.262       .  A
C113        O114   1.270       .  A
C113       C1057   1.505       .  S
O114       Cr130   2.010       .  S
O115       Cr130   1.996       .  S
O115        C116   1.261       .  A
C116        O117   1.260       .  A
C116       C1288   1.484       .  S
O117       Cr131   1.984       .  S
O118       Cr131   2.000       .  S
O118        C119   1.264       .  A
C119       C1029   1.488       .  S
O120       Cr129   2.014       .  S
O120        C128   1.264       .  A
O121       Cr129   2.005       .  S
O121        C122   1.268       .  A
C122        O123   1.264       .  A
C122       C1008   1.490       .  S
O123       Cr130   1.992       .  S
O124       Cr130   2.012       .  S
O124        C125   1.270       .  A
C125        O126   1.261       .  A
C125       C1141   1.484       .  S
O126       Cr131   1.984       .  S
O127       Cr131   1.972       .  S
O127        C128   1.256       .  A
C128       C1085   1.503       .  S
Cr129       O132   1.779       .  S
Cr130       O132   1.771       .  S
Cr131       O132   1.772       .  S
O133       Cr151   1.950       .  S
O133        C141   1.257       .  A
O134       Cr151   2.027       .  S
O134        C135   1.271       .  A
C135        O136   1.264       .  A
C135       C1449   1.484       .  S
O136       Cr152   1.981       .  S
O137       Cr152   1.999       .  S
O137        C138   1.260       .  A
C138        O139   1.255       .  A
C138       C1036   1.485       .  S
O139       Cr153   1.978       .  S
O140       Cr153   2.027       .  S
O140        C141   1.273       .  A
C141       C1624   1.491       .  S
O142       Cr151   2.040       .  S
O142        C150   1.269       .  A
O143       Cr151   1.998       .  S
O143        C144   1.267       .  A
C144        O145   1.262       .  A
C144       C1596   1.492       .  S
O145       Cr152   1.990       .  S
O146       Cr152   1.958       .  S
O146        C147   1.259       .  A
C147        O148   1.273       .  A
C147        C980   1.476       .  S
O148       Cr153   2.028       .  S
O149       Cr153   1.965       .  S
O149        C150   1.254       .  A
C150        C945   1.512       .  S
Cr151       O154   1.770       .  S
Cr152       O154   1.764       .  S
Cr153       O154   1.772       .  S
O155       Cr173   1.956       .  S
O155        C163   1.258   1_554  A
O156       Cr173   2.032       .  S
O156        C157   1.273       .  A
C157        O158   1.260       .  A
C157       C1176   1.478       .  S
O158       Cr174   1.961       .  S
O159       Cr174   1.997       .  S
O159        C160   1.259       .  A
C160        O161   1.255       .  A
C160       C1568   1.478       .  S
O161       Cr175   1.979       .  S
O162       Cr175   2.028   1_556  S
O162        C163   1.271       .  A
C163       C1092   1.494       .  S
O164       Cr173   2.038       .  S
O164        C172   1.271       .  A
O165       Cr173   2.002       .  S
O165        C166   1.265       .  A
C166        O167   1.262       .  A
C166       C1064   1.504       .  S
O167       Cr174   1.997       .  S
O168       Cr174   1.960       .  S
O168        C169   1.260       .  A
C169        O170   1.273       .  A
C169        C973   1.474       .  S
O170       Cr175   2.029       .  S
O171       Cr175   1.961       .  S
O171        C172   1.254       .  A
C172        C924   1.522       .  S
Cr173       O176   1.771       .  S
Cr174       O176   1.765       .  S
Cr175       O176   1.771       .  S
O177       Cr195   2.017       .  S
O177        C185   1.270       .  A
O178       Cr195   1.961       .  S
O178        C179   1.260       .  A
C179        O180   1.274       .  A
C179        C805   1.491       .  S
O180       Cr196   2.041       .  S
O181       Cr196   1.978       .  S
O181        C182   1.257       .  A
C182        O183   1.263       .  A
C182        C896   1.490       .  S
O183       Cr197   2.005       .  S
O184       Cr197   1.965       .  S
O184        C185   1.260       .  A
C185        C784   1.486   1_455  S
O186       Cr195   2.008       .  S
O186        C194   1.269       .  A
O187       Cr195   2.032       .  S
O187        C188   1.267       .  A
C188        O189   1.252       .  A
C188       C1001   1.501       .  S
O189       Cr196   1.962       .  S
O190       Cr196   2.038       .  S
O190        C191   1.273       .  A
C191        O192   1.257       .  A
C191        C861   1.488       .  S
O192       Cr197   1.954       .  S
O193       Cr197   1.992       .  S
O193        C194   1.263       .  A
C194        C840   1.513       .  S
Cr195       O198   1.777       .  S
Cr196       O198   1.768       .  S
Cr197       O198   1.758       .  S
O199       Cr217   2.034   1_565  S
O199        C207   1.275       .  A
O200       Cr217   1.950       .  S
O200        C201   1.255   1_554  A
C201        O202   1.272   1_556  A
C201        C728   1.493       .  S
O202       Cr218   2.034       .  S
O203       Cr218   1.978       .  S
O203        C204   1.255       .  A
C204        O205   1.261       .  A
C204        C693   1.490       .  S
O205       Cr219   2.003       .  S
O206       Cr219   1.962       .  S
O206        C207   1.261   1_545  A
C207        C665   1.482       .  S
O208       Cr217   1.997       .  S
O208        C216   1.263       .  A
O209       Cr217   2.040       .  S
O209        C210   1.272       .  A
C210        O211   1.255       .  A
C210       C1113   1.500       .  S
O211       Cr218   1.960       .  S
O212       Cr218   2.040       .  S
O212        C213   1.276       .  A
C213        O214   1.259       .  A
C213        C868   1.489       .  S
O214       Cr219   1.954       .  S
O215       Cr219   1.994       .  S
O215        C216   1.261       .  A
C216        C749   1.496       .  S
Cr217       O220   1.770       .  S
Cr218       O220   1.768       .  S
Cr219       O220   1.763       .  S
O221       Cr239   1.954   1_554  S
O221        C229   1.257       .  A
O222       Cr239   2.032       .  S
O222        C223   1.273       .  A
C223        O224   1.260       .  A
C223        C553   1.497   1_455  S
O224       Cr240   1.966       .  S
O225       Cr240   2.007       .  S
O225        C226   1.263   1_556  A
C226        O227   1.257       .  A
C226        C672   1.489       .  S
O227       Cr241   1.975   1_554  S
O228       Cr241   2.036   1_554  S
O228        C229   1.274       .  A
C229        C616   1.504       .  S
O230       Cr239   2.030       .  S
O230        C238   1.269       .  A
O231       Cr239   1.982       .  S
O231        C232   1.261       .  A
C232        O233   1.264       .  A
C232        C637   1.485       .  S
O233       Cr240   2.000       .  S
O234       Cr240   1.958       .  S
O234        C235   1.258       .  A
C235        O236   1.275       .  A
C235        C581   1.494       .  S
O236       Cr241   2.046       .  S
O237       Cr241   1.972       .  S
O237        C238   1.259       .  A
C238        C917   1.500       .  S
Cr239       O242   1.772       .  S
Cr240       O242   1.767       .  S
Cr241       O242   1.770       .  S
O243       Cr261   1.989       .  S
O243        C251   1.260       .  A
O244       Cr261   1.993       .  S
O244        C245   1.263       .  A
C245        O246   1.261       .  A
C245        C889   1.490   1_565  S
O246       Cr262   1.994       .  S
O247       Cr262   1.987       .  S
O247        C248   1.262       .  A
C248        O249   1.264       .  A
C248        C525   1.492       .  S
O249       Cr263   2.007       .  S
O250       Cr263   2.012       .  S
O250        C251   1.270       .  A
C251        C756   1.501       .  S
O252       Cr261   2.007       .  S
O252        C260   1.268       .  A
O253       Cr261   2.009       .  S
O253        C254   1.265       .  A
C254        O255   1.258       .  A
C254        C721   1.505       .  S
O255       Cr262   1.976       .  S
O256       Cr262   1.981       .  S
O256        C257   1.260       .  A
C257        O258   1.269       .  A
C257        C588   1.483       .  S
O258       Cr263   2.014       .  S
O259       Cr263   1.999       .  S
O259        C260   1.263       .  A
C260        C952   1.491       .  S
Cr261       O264   1.778       .  S
Cr262       O264   1.775       .  S
Cr263       O264   1.773       .  S
O265       Cr283   2.034   1_455  S
O265        C273   1.274       .  A
O266       Cr283   1.953       .  S
O266        C267   1.255       .  A
C267        O268   1.270       .  A
C267        C644   1.489       .  S
O268       Cr284   2.030       .  S
O269       Cr284   1.976       .  S
O269        C270   1.257       .  A
C270        O271   1.264       .  A
C270        C497   1.492       .  S
O271       Cr285   2.011       .  S
O272       Cr285   1.978       .  S
O272        C273   1.263   1_655  A
C273        C532   1.504       .  S
O274       Cr283   1.986       .  S
O274        C282   1.262       .  A
O275       Cr283   2.045       .  S
O275        C276   1.272       .  A
C276        O277   1.256       .  A
C276       C1400   1.514       .  S
O277       Cr284   1.959       .  S
O278       Cr284   2.030       .  S
O278        C279   1.273       .  A
C279        O280   1.263       .  A
C279        C476   1.512       .  S
O280       Cr285   1.972       .  S
O281       Cr285   2.010       .  S
O281        C282   1.266       .  A
C282        C609   1.490   1_655  S
Cr283       O286   1.772       .  S
Cr284       O286   1.770       .  S
Cr285       O286   1.767       .  S
O287       Cr305   2.037       .  S
O287        C295   1.276       .  A
O288       Cr305   1.951       .  S
O288        C289   1.254   1_554  A
C289        O290   1.272   1_556  A
C289        C413   1.495       .  S
O290       Cr306   2.035       .  S
O291       Cr306   1.983       .  S
O291        C292   1.257       .  A
C292        O293   1.262       .  A
C292        C560   1.487       .  S
O293       Cr307   2.009       .  S
O294       Cr307   1.956       .  S
O294        C295   1.260       .  A
C295        C392   1.482   1_565  S
O296       Cr305   2.001       .  S
O296        C304   1.263       .  A
O297       Cr305   2.047       .  S
O297        C298   1.275       .  A
C298        O299   1.260       .  A
C298       C1540   1.515       .  S
O299       Cr306   1.966       .  S
O300       Cr306   2.055       .  S
O300        C301   1.278       .  A
C301        O302   1.255       .  A
C301        C469   1.505       .  S
O302       Cr307   1.955       .  S
O303       Cr307   1.992       .  S
O303        C304   1.258       .  A
C304        C441   1.482       .  S
Cr305       O308   1.767       .  S
Cr306       O308   1.771       .  S
Cr307       O308   1.760       .  S
O309       Cr327   1.974   1_554  S
O309        C317   1.260       .  A
O310       Cr327   2.019   1_455  S
O310        C311   1.270       .  A
C311        O312   1.263   1_455  A
C311        C700   1.491       .  S
O312       Cr328   1.974       .  S
O313       Cr328   2.011       .  S
O313        C314   1.264   1_556  A
C314        O315   1.254       .  A
C314        C385   1.488       .  S
O315       Cr329   1.971       .  S
O316       Cr329   2.025       .  S
O316        C317   1.269       .  A
C317        C833   1.498       .  S
O318       Cr327   2.030       .  S
O318        C326   1.271       .  A
O319       Cr327   1.999       .  S
O319        C320   1.266       .  A
C320        O321   1.264       .  A
C320        C812   1.499       .  S
O321       Cr328   2.000       .  S
O322       Cr328   1.973       .  S
O322        C323   1.262       .  A
C323        O324   1.273       .  A
C323        C364   1.493       .  S
O324       Cr329   2.038   1_556  S
O325       Cr329   1.960   1_556  S
O325        C326   1.257       .  A
C326       C1204   1.504       .  S
Cr327       O330   1.774       .  S
Cr328       O330   1.769       .  S
Cr329       O330   1.773   1_554  S
O331       Cr349   2.007       .  S
O331        C339   1.270       .  A
O332       Cr349   2.004       .  S
O332        C333   1.264   1_545  A
C333        O334   1.256   1_565  A
C333        C504   1.494       .  S
O334       Cr350   1.965       .  S
O335       Cr350   1.997       .  S
O335        C336   1.258       .  A
C336        O337   1.252       .  A
C336        C777   1.496       .  S
O337       Cr351   1.969       .  S
O338       Cr351   1.994       .  S
O338        C339   1.269       .  A
C339        C448   1.496       .  S
O340       Cr349   2.019       .  S
O340        C348   1.264       .  A
O341       Cr349   2.006       .  S
O341        C342   1.266       .  A
C342        O343   1.258       .  A
C342        C420   1.498       .  S
O343       Cr350   1.963       .  S
O344       Cr350   1.976       .  S
O344        C345   1.263       .  A
C345        O346   1.275       .  A
C345        C357   1.508       .  S
O346       Cr351   2.021       .  S
O347       Cr351   1.977       .  S
O347        C348   1.253       .  A
C348       C1253   1.506       .  S
Cr349       O352   1.792       .  S
Cr350       O352   1.784       .  S
Cr351       O352   1.783       .  S
C353        C354   1.406       .  A
C353        C358   1.406       .  A
C353        C371   1.455       .  S
C354        C359   1.501       .  S
C354        C355   1.411       .  A
C355        C356   1.421       .  A
C355        C360   1.449       .  S
C356        C357   1.420       .  A
C356        C372   1.448       .  S
C357        C358   1.430       .  A
C358        C361   1.454       .  S
C359        C362   1.411       .  A
C359        C366   1.411       .  A
C360        N377   1.157       .  T
C361        N379   1.158       .  T
C362        C363   1.414       .  A
C362        C367   1.450       .  S
C363        C364   1.415       .  A
C363        C369   1.450       .  S
C364        C365   1.416       .  A
C365        C366   1.413       .  A
C365        C368   1.447       .  S
C366        C370   1.452       .  S
C367        N374   1.157       .  T
C368        N375   1.156       .  T
C369        N373   1.157       .  T
C370        N376   1.157       .  T
C371        N380   1.157       .  T
C372        N378   1.157       .  T
C381        C382   1.408       .  A
C381        C386   1.409       .  A
C381        C399   1.452       .  S
C382        C387   1.493       .  S
C382        C383   1.410       .  A
C383        C384   1.411       .  A
C383        C388   1.450       .  S
C384        C385   1.415       .  A
C384        C400   1.451   1_554  S
C385        C386   1.419       .  A
C386        C389   1.452       .  S
C387        C390   1.411       .  A
C387        C394   1.409       .  A
C388        N405   1.157   1_554  T
C389        N407   1.157       .  T
C390        C391   1.410       .  A
C390        C395   1.451   1_554  S
C391        C392   1.412       .  A
C391        C397   1.448       .  S
C392        C393   1.416       .  A
C393        C394   1.409       .  A
C393        C396   1.452       .  S
C394        C398   1.451       .  S
C395        N402   1.157       .  T
C396        N403   1.157   1_545  T
C397        N401   1.156   1_554  T
C398        N404   1.157       .  T
C399        N408   1.157       .  T
C400        N406   1.157       .  T
C409        C410   1.408       .  A
C409        C414   1.407       .  A
C409        C427   1.453       .  S
C410        C415   1.502       .  S
C410        C411   1.414       .  A
C411        C412   1.417       .  A
C411        C416   1.450       .  S
C412        C413   1.415       .  A
C412        C428   1.450       .  S
C413        C414   1.422       .  A
C414        C417   1.452       .  S
C415        C418   1.412   1_565  A
C415        C422   1.410       .  A
C416        N433   1.157       .  T
C417        N435   1.158       .  T
C418        C419   1.409       .  A
C418        C423   1.452       .  S
C419        C420   1.419       .  A
C419        C425   1.453       .  S
C420        C421   1.421   1_545  A
C421        C422   1.414       .  A
C421        C424   1.451       .  S
C422        C426   1.451       .  S
C423        N430   1.157       .  T
C424        N431   1.158       .  T
C425        N429   1.157       .  T
C426        N432   1.157       .  T
C427        N436   1.157   1_565  T
C428        N434   1.157       .  T
C437        C438   1.414   1_565  A
C437        C442   1.413       .  A
C437        C455   1.450       .  S
C438        C443   1.502       .  S
C438        C439   1.411       .  A
C439        C440   1.413       .  A
C439        C444   1.450       .  S
C440        C441   1.414   1_545  A
C440        C456   1.451       .  S
C441        C442   1.411       .  A
C442        C445   1.451       .  S
C443        C446   1.412       .  A
C443        C450   1.409       .  A
C444        N461   1.157       .  T
C445        N463   1.157       .  T
C446        C447   1.414       .  A
C446        C451   1.451       .  S
C447        C448   1.416       .  A
C447        C453   1.449       .  S
C448        C449   1.418       .  A
C449        C450   1.413       .  A
C449        C452   1.451       .  S
C450        C454   1.450       .  S
C451        N458   1.157       .  T
C452        N459   1.157       .  T
C453        N457   1.157       .  T
C454        N460   1.157       .  T
C455        N464   1.157       .  T
C456        N462   1.157       .  T
C465        C466   1.407       .  A
C465        C470   1.407       .  A
C465        C483   1.455       .  S
C466        C471   1.501       .  S
C466        C467   1.411       .  A
C467        C468   1.418       .  A
C467        C472   1.449       .  S
C468        C469   1.420       .  A
C468        C484   1.449       .  S
C469        C470   1.428       .  A
C470        C473   1.454       .  S
C471        C474   1.408       .  A
C471        C478   1.408       .  A
C472        N489   1.157       .  T
C473        N491   1.158       .  T
C474        C475   1.415       .  A
C474        C479   1.452       .  S
C475        C476   1.425       .  A
C475        C481   1.449       .  S
C476        C477   1.424       .  A
C477        C478   1.413       .  A
C477        C480   1.452       .  S
C478        C482   1.451       .  S
C479        N486   1.157       .  T
C480        N487   1.157       .  T
C481        N485   1.157       .  T
C482        N488   1.157       .  T
C483        N492   1.157       .  T
C484        N490   1.157       .  T
C493        C494   1.410       .  A
C493        C498   1.412       .  A
C493        C511   1.451       .  S
C494        C499   1.499       .  S
C494        C495   1.411       .  A
C495        C496   1.412       .  A
C495        C500   1.451       .  S
C496        C497   1.415       .  A
C496        C512   1.450       .  S
C497        C498   1.419       .  A
C498        C501   1.451       .  S
C499        C502   1.408       .  A
C499        C506   1.413       .  A
C500        N517   1.157       .  T
C501        N519   1.158       .  T
C502        C503   1.408       .  A
C502        C507   1.452       .  S
C503        C504   1.420       .  A
C503        C509   1.453       .  S
C504        C505   1.415       .  A
C505        C506   1.416       .  A
C505        C508   1.449       .  S
C506        C510   1.450       .  S
C507        N514   1.157       .  T
C508        N515   1.157       .  T
C509        N513   1.157       .  T
C510        N516   1.157       .  T
C511        N520   1.157       .  T
C512        N518   1.157       .  T
C521        C522   1.413       .  A
C521        C526   1.414       .  A
C521        C539   1.450       .  S
C522        C527   1.507       .  S
C522        C523   1.413       .  A
C523        C524   1.414       .  A
C523        C528   1.450       .  S
C524        C525   1.415       .  A
C524        C540   1.451       .  S
C525        C526   1.413       .  A
C526        C529   1.449       .  S
C527        C530   1.413       .  A
C527        C534   1.411       .  A
C528        N545   1.157       .  T
C529        N547   1.157       .  T
C530        C531   1.415       .  A
C530        C535   1.452       .  S
C531        C532   1.418       .  A
C531        C537   1.449       .  S
C532        C533   1.421       .  A
C533        C534   1.415       .  A
C533        C536   1.451       .  S
C534        C538   1.451       .  S
C535        N542   1.157       .  T
C536        N543   1.157   1_455  T
C537        N541   1.156       .  T
C538        N544   1.157       .  T
C539        N548   1.157       .  T
C540        N546   1.157       .  T
C549        C550   1.408       .  A
C549        C554   1.411       .  A
C549        C567   1.451       .  S
C550        C555   1.496       .  S
C550        C551   1.409   1_554  A
C551        C552   1.412       .  A
C551        C556   1.451       .  S
C552        C553   1.419       .  A
C552        C568   1.450       .  S
C553        C554   1.421   1_556  A
C554        C557   1.451   1_655  S
C555        C558   1.411   1_554  A
C555        C562   1.408       .  A
C556        N573   1.157       .  T
C557        N575   1.157       .  T
C558        C559   1.414   1_556  A
C558        C563   1.449       .  S
C559        C560   1.415       .  A
C559        C565   1.451   1_554  S
C560        C561   1.415       .  A
C561        C562   1.407       .  A
C561        C564   1.448       .  S
C562        C566   1.453       .  S
C563        N570   1.157       .  T
C564        N571   1.156       .  T
C565        N569   1.158       .  T
C566        N572   1.157       .  T
C567        N576   1.157       .  T
C568        N574   1.157       .  T
C577        C578   1.413       .  A
C577        C582   1.419       .  A
C577        C595   1.448       .  S
C578        C583   1.504       .  S
C578        C579   1.411       .  A
C579        C580   1.408       .  A
C579        C584   1.452       .  S
C580        C581   1.418       .  A
C580        C596   1.453       .  S
C581        C582   1.414       .  A
C582        C585   1.448       .  S
C583        C586   1.414       .  A
C583        C590   1.412       .  A
C584        N601   1.157       .  T
C585        N603   1.157       .  T
C586        C587   1.413       .  A
C586        C591   1.450       .  S
C587        C588   1.412       .  A
C587        C593   1.451       .  S
C588        C589   1.414       .  A
C589        C590   1.415       .  A
C589        C592   1.450       .  S
C590        C594   1.450       .  S
C591        N598   1.157       .  T
C592        N599   1.157       .  T
C593        N597   1.157       .  T
C594        N600   1.157       .  T
C595        N604   1.157       .  T
C596        N602   1.157       .  T
C605        C606   1.408       .  A
C605        C610   1.408       .  A
C605        C623   1.452       .  S
C606        C611   1.498       .  S
C606        C607   1.413       .  A
C607        C608   1.415   1_455  A
C607        C612   1.449   1_455  S
C608        C609   1.414   1_655  A
C608        C624   1.450       .  S
C609        C610   1.418       .  A
C610        C613   1.450       .  S
C611        C614   1.410       .  A
C611        C618   1.407       .  A
C612        N629   1.157       .  T
C613        N631   1.157       .  T
C614        C615   1.417       .  A
C614        C619   1.450       .  S
C615        C616   1.422       .  A
C615        C621   1.450       .  S
C616        C617   1.425       .  A
C617        C618   1.407       .  A
C617        C620   1.451       .  S
C618        C622   1.455   1_455  S
C619        N626   1.157       .  T
C620        N627   1.156   1_455  T
C621        N625   1.158       .  T
C622        N628   1.157       .  T
C623        N632   1.157       .  T
C624        N630   1.157       .  T
C633        C634   1.409       .  A
C633        C638   1.413   1_655  A
C633        C651   1.450       .  S
C634        C639   1.493       .  S
C634        C635   1.410   1_655  A
C635        C636   1.406       .  A
C635        C640   1.453       .  S
C636        C637   1.414       .  A
C636        C652   1.452       .  S
C637        C638   1.416       .  A
C638        C641   1.450   1_455  S
C639        C642   1.411       .  A
C639        C646   1.406       .  A
C640        N657   1.157       .  T
C641        N659   1.157       .  T
C642        C643   1.414       .  A
C642        C647   1.450       .  S
C643        C644   1.415       .  A
C643        C649   1.450       .  S
C644        C645   1.419       .  A
C645        C646   1.405       .  A
C645        C648   1.451       .  S
C646        C650   1.453   1_655  S
C647        N654   1.157       .  T
C648        N655   1.157   1_655  T
C649        N653   1.157       .  T
C650        N656   1.157       .  T
C651        N660   1.157       .  T
C652        N658   1.157       .  T
C661        C662   1.409       .  A
C661        C666   1.410       .  A
C661        C679   1.450       .  S
C662        C667   1.494       .  S
C662        C663   1.411       .  A
C663        C664   1.409       .  A
C663        C668   1.452   1_554  S
C664        C665   1.411       .  A
C664        C680   1.448       .  S
C665        C666   1.415       .  A
C666        C669   1.452       .  S
C667        C670   1.410       .  A
C667        C674   1.408       .  A
C668        N685   1.157       .  T
C669        N687   1.157       .  T
C670        C671   1.410       .  A
C670        C675   1.451       .  S
C671        C672   1.417       .  A
C671        C677   1.451   1_554  S
C672        C673   1.419       .  A
C673        C674   1.410       .  A
C673        C676   1.452       .  S
C674        C678   1.451       .  S
C675        N682   1.157       .  T
C676        N683   1.158       .  T
C677        N681   1.157       .  T
C678        N684   1.157       .  T
C679        N688   1.157       .  T
C680        N686   1.156   1_554  T
C689        C690   1.410   1_554  A
C689        C694   1.410       .  A
C689        C707   1.451       .  S
C690        C695   1.496       .  S
C690        C691   1.409       .  A
C691        C692   1.410       .  A
C691        C696   1.451       .  S
C692        C693   1.418   1_556  A
C692        C708   1.451       .  S
C693        C694   1.417       .  A
C694        C697   1.452       .  S
C695        C698   1.411   1_556  A
C695        C702   1.409       .  A
C696        N713   1.157       .  T
C697        N715   1.157       .  T
C698        C699   1.410       .  A
C698        C703   1.452       .  S
C699        C700   1.417   1_554  A
C699        C705   1.451       .  S
C700        C701   1.418       .  A
C701        C702   1.411       .  A
C701        C704   1.451       .  S
C702        C706   1.451       .  S
C703        N710   1.157       .  T
C704        N711   1.157       .  T
C705        N709   1.157       .  T
C706        N712   1.157       .  T
C707        N716   1.157       .  T
C708        N714   1.158       .  T
C717        C718   1.408       .  A
C717        C722   1.411       .  A
C717        C735   1.453       .  S
C718        C723   1.496   1_565  S
C718        C719   1.407       .  A
C719        C720   1.413       .  A
C719        C724   1.451   1_565  S
C720        C721   1.424       .  A
C720        C736   1.451       .  S
C721        C722   1.425       .  A
C722        C725   1.452       .  S
C723        C726   1.406   1_545  A
C723        C730   1.411       .  A
C724        N741   1.157       .  T
C725        N743   1.157       .  T
C726        C727   1.408   1_565  A
C726        C731   1.452       .  S
C727        C728   1.423       .  A
C727        C733   1.453   1_545  S
C728        C729   1.415       .  A
C729        C730   1.413       .  A
C729        C732   1.448       .  S
C730        C734   1.451       .  S
C731        N738   1.157       .  T
C732        N739   1.157       .  T
C733        N737   1.158   1_556  T
C734        N740   1.157       .  T
C735        N744   1.157       .  T
C736        N742   1.158       .  T
C745        C746   1.410       .  A
C745        C750   1.407   1_565  A
C745        C763   1.453   1_565  S
C746        C751   1.500       .  S
C746        C747   1.412       .  A
C747        C748   1.417       .  A
C747        C752   1.450       .  S
C748        C749   1.418   1_565  A
C748        C764   1.450       .  S
C749        C750   1.420       .  A
C750        C753   1.453       .  S
C751        C754   1.412       .  A
C751        C758   1.407       .  A
C752        N769   1.157       .  T
C753        N771   1.157       .  T
C754        C755   1.417       .  A
C754        C759   1.449       .  S
C755        C756   1.417       .  A
C755        C761   1.449       .  S
C756        C757   1.426       .  A
C757        C758   1.408       .  A
C757        C760   1.453       .  S
C758        C762   1.454   1_565  S
C759        N766   1.157       .  T
C760        N767   1.157       .  T
C761        N765   1.157       .  T
C762        N768   1.157       .  T
C763        N772   1.157       .  T
C764        N770   1.157       .  T
C773        C774   1.410       .  A
C773        C778   1.416       .  A
C773        C791   1.450       .  S
C774        C779   1.492       .  S
C774        C775   1.405       .  A
C775        C776   1.402       .  A
C775        C780   1.455       .  S
C776        C777   1.427       .  A
C776        C792   1.454       .  S
C777        C778   1.418       .  A
C778        C781   1.449       .  S
C779        C782   1.411       .  A
C779        C786   1.409       .  A
C780        N797   1.157       .  T
C781        N799   1.158       .  T
C782        C783   1.407       .  A
C782        C787   1.452       .  S
C783        C784   1.416       .  A
C783        C789   1.451       .  S
C784        C785   1.416       .  A
C785        C786   1.410       .  A
C785        C788   1.452   1_655  S
C786        C790   1.450       .  S
C787        N794   1.157       .  T
C788        N795   1.157       .  T
C789        N793   1.158       .  T
C790        N796   1.157       .  T
C791        N800   1.157       .  T
C792        N798   1.157       .  T
C801        C802   1.409       .  A
C801        C806   1.411       .  A
C801        C819   1.450       .  S
C802        C807   1.503       .  S
C802        C803   1.414       .  A
C803        C804   1.416       .  A
C803        C808   1.449       .  S
C804        C805   1.412       .  A
C804        C820   1.450       .  S
C805        C806   1.416       .  A
C806        C809   1.451       .  S
C807        C810   1.410       .  A
C807        C814   1.411       .  A
C808        N825   1.157       .  T
C809        N827   1.157       .  T
C810        C811   1.411   1_455  A
C810        C815   1.452   1_455  S
C811        C812   1.419       .  A
C811        C817   1.451       .  S
C812        C813   1.419   1_655  A
C813        C814   1.418       .  A
C813        C816   1.450       .  S
C814        C818   1.449       .  S
C815        N822   1.157       .  T
C816        N823   1.157       .  T
C817        N821   1.157       .  T
C818        N824   1.157       .  T
C819        N828   1.157   1_455  T
C820        N826   1.157       .  T
C829        C830   1.414       .  A
C829        C834   1.419       .  A
C829        C847   1.449       .  S
C830        C835   1.508   1_655  S
C830        C831   1.413   1_655  A
C831        C832   1.409   1_455  A
C831        C836   1.452       .  S
C832        C833   1.415       .  A
C832        C848   1.451   1_655  S
C833        C834   1.417       .  A
C834        C837   1.450       .  S
C835        C838   1.408   1_455  A
C835        C842   1.413       .  A
C836        N853   1.157       .  T
C837        N855   1.157       .  T
C838        C839   1.410   1_655  A
C838        C843   1.454       .  S
C839        C840   1.430       .  A
C839        C845   1.454       .  S
C840        C841   1.421       .  A
C841        C842   1.421       .  A
C841        C844   1.450       .  S
C842        C846   1.450       .  S
C843        N850   1.157       .  T
C844        N851   1.158       .  T
C845        N849   1.158       .  T
C846        N852   1.157       .  T
C847        N856   1.157       .  T
C848        N854   1.157       .  T
C857        C858   1.410       .  A
C857        C862   1.405       .  A
C857        C875   1.453       .  S
C858        C863   1.497       .  S
C858        C859   1.412       .  A
C859        C860   1.418       .  A
C859        C864   1.448       .  S
C860        C861   1.414       .  A
C860        C876   1.449       .  S
C861        C862   1.417       .  A
C862        C865   1.454       .  S
C863        C866   1.412       .  A
C863        C870   1.408       .  A
C864        N881   1.157       .  T
C865        N883   1.157       .  T
C866        C867   1.414       .  A
C866        C871   1.450       .  S
C867        C868   1.415       .  A
C867        C873   1.450       .  S
C868        C869   1.418       .  A
C869        C870   1.409       .  A
C869        C872   1.452       .  S
C870        C874   1.451       .  S
C871        N878   1.157       .  T
C872        N879   1.157       .  T
C873        N877   1.157       .  T
C874        N880   1.157       .  T
C875        N884   1.157       .  T
C876        N882   1.157       .  T
C885        C886   1.414       .  A
C885        C890   1.411       .  A
C885        C903   1.451       .  S
C886        C891   1.502       .  S
C886        C887   1.411       .  A
C887        C888   1.412       .  A
C887        C892   1.451       .  S
C888        C889   1.418       .  A
C888        C904   1.452       .  S
C889        C890   1.414       .  A
C890        C893   1.451   1_545  S
C891        C894   1.412       .  A
C891        C898   1.412       .  A
C892        N909   1.157       .  T
C893        N911   1.157       .  T
C894        C895   1.411       .  A
C894        C899   1.451       .  S
C895        C896   1.415       .  A
C895        C901   1.451       .  S
C896        C897   1.417       .  A
C897        C898   1.412       .  A
C897        C900   1.451       .  S
C898        C902   1.451       .  S
C899        N906   1.157       .  T
C900        N907   1.157       .  T
C901        N905   1.157       .  T
C902        N908   1.157       .  T
C903        N912   1.157       .  T
C904        N910   1.157       .  T
C913        C914   1.412       .  A
C913        C918   1.417       .  A
C913        C931   1.449       .  S
C914        C919   1.509       .  S
C914        C915   1.413   1_554  A
C915        C916   1.414       .  A
C915        C920   1.450       .  S
C916        C917   1.415       .  A
C916        C932   1.450       .  S
C917        C918   1.418   1_556  A
C918        C921   1.450       .  S
C919        C922   1.410       .  A
C919        C926   1.408       .  A
C920        N937   1.157       .  T
C921        N939   1.157       .  T
C922        C923   1.421       .  A
C922        C927   1.450       .  S
C923        C924   1.425       .  A
C923        C929   1.449       .  S
C924        C925   1.430       .  A
C925        C926   1.414       .  A
C925        C928   1.452       .  S
C926        C930   1.453       .  S
C927        N934   1.157       .  T
C928        N935   1.158       .  T
C929        N933   1.157       .  T
C930        N936   1.157       .  T
C931        N940   1.157       .  T
C932        N938   1.157       .  T
C941        C942   1.410       .  A
C941        C946   1.414       .  A
C941        C959   1.452       .  S
C942        C947   1.509       .  S
C942        C943   1.409       .  A
C943        C944   1.420       .  A
C943        C948   1.450       .  S
C944        C945   1.423       .  A
C944        C960   1.448       .  S
C945        C946   1.422       .  A
C946        C949   1.450       .  S
C947        C950   1.414       .  A
C947        C954   1.411       .  A
C948        N965   1.157       .  T
C949        N967   1.157       .  T
C950        C951   1.416       .  A
C950        C955   1.450       .  S
C951        C952   1.412       .  A
C951        C957   1.449       .  S
C952        C953   1.416       .  A
C953        C954   1.417       .  A
C953        C956   1.450       .  S
C954        C958   1.450       .  S
C955        N962   1.157       .  T
C956        N963   1.157       .  T
C957        N961   1.157       .  T
C958        N964   1.157       .  T
C959        N968   1.157       .  T
C960        N966   1.156       .  T
C969        C970   1.415       .  A
C969        C974   1.406       .  A
C969        C987   1.453       .  S
C970        C975   1.498       .  S
C970        C971   1.413       .  A
C971        C972   1.412       .  A
C971        C976   1.450       .  S
C972        C973   1.411       .  A
C972        C988   1.450       .  S
C973        C974   1.410       .  A
C974        C977   1.451       .  S
C975        C978   1.412       .  A
C975        C982   1.415       .  A
C976        N993   1.157       .  T
C977        N995   1.157       .  T
C978        C979   1.410       .  A
C978        C983   1.451       .  S
C979        C980   1.413       .  A
C979        C985   1.451       .  S
C980        C981   1.410       .  A
C981        C982   1.409       .  A
C981        C984   1.450       .  S
C982        C986   1.452       .  S
C983        N990   1.157       .  T
C984        N991   1.157       .  T
C985        N989   1.157       .  T
C986        N992   1.157       .  T
C987        N996   1.157       .  T
C988        N994   1.157       .  T
C997        C998   1.412       .  A
C997       C1002   1.417       .  A
C997       C1015   1.450       .  S
C998       C1003   1.500       .  S
C998        C999   1.408       .  A
C999       C1000   1.408       .  A
C999       C1004   1.454       .  S
C1000      C1001   1.425       .  A
C1000      C1016   1.453       .  S
C1001      C1002   1.418       .  A
C1002      C1005   1.450       .  S
C1003      C1006   1.415       .  A
C1003      C1010   1.408       .  A
C1004      N1021   1.157       .  T
C1005      N1023   1.157       .  T
C1006      C1007   1.417       .  A
C1006      C1011   1.449       .  S
C1007      C1008   1.412       .  A
C1007      C1013   1.448       .  S
C1008      C1009   1.418       .  A
C1009      C1010   1.407       .  A
C1009      C1012   1.451       .  S
C1010      C1014   1.452       .  S
C1011      N1018   1.157       .  T
C1012      N1019   1.157       .  T
C1013      N1017   1.157       .  T
C1014      N1020   1.157       .  T
C1015      N1024   1.157       .  T
C1016      N1022   1.157       .  T
C1025      C1026   1.413       .  A
C1025      C1030   1.411       .  A
C1025      C1043   1.451       .  S
C1026      C1031   1.499       .  S
C1026      C1027   1.410       .  A
C1027      C1028   1.411       .  A
C1027      C1032   1.451       .  S
C1028      C1029   1.417       .  A
C1028      C1044   1.451       .  S
C1029      C1030   1.415       .  A
C1030      C1033   1.450       .  S
C1031      C1034   1.411       .  A
C1031      C1038   1.412       .  A
C1032      N1049   1.157       .  T
C1033      N1051   1.157       .  T
C1034      C1035   1.412       .  A
C1034      C1039   1.451       .  S
C1035      C1036   1.416       .  A
C1035      C1041   1.451       .  S
C1036      C1037   1.412       .  A
C1037      C1038   1.410       .  A
C1037      C1040   1.451       .  S
C1038      C1042   1.451       .  S
C1039      N1046   1.157       .  T
C1040      N1047   1.157       .  T
C1041      N1045   1.157       .  T
C1042      N1048   1.157       .  T
C1043      N1052   1.157       .  T
C1044      N1050   1.157       .  T
C1053      C1054   1.411       .  A
C1053      C1058   1.417       .  A
C1053      C1071   1.450       .  S
C1054      C1059   1.501       .  S
C1054      C1055   1.406       .  A
C1055      C1056   1.410       .  A
C1055      C1060   1.453       .  S
C1056      C1057   1.426       .  A
C1056      C1072   1.452       .  S
C1057      C1058   1.418       .  A
C1058      C1061   1.449       .  S
C1059      C1062   1.411       .  A
C1059      C1066   1.407       .  A
C1060      N1077   1.157       .  T
C1061      N1079   1.157       .  T
C1062      C1063   1.418       .  A
C1062      C1067   1.450       .  S
C1063      C1064   1.420       .  A
C1063      C1069   1.450       .  S
C1064      C1065   1.424       .  A
C1065      C1066   1.410       .  A
C1065      C1068   1.453       .  S
C1066      C1070   1.453       .  S
C1067      N1074   1.157       .  T
C1068      N1075   1.158       .  T
C1069      N1073   1.158       .  T
C1070      N1076   1.157       .  T
C1071      N1080   1.157       .  T
C1072      N1078   1.158       .  T
C1081      C1082   1.408       .  A
C1081      C1086   1.410       .  A
C1081      C1099   1.453       .  S
C1082      C1087   1.498       .  S
C1082      C1083   1.409       .  A
C1083      C1084   1.414       .  A
C1083      C1088   1.451       .  S
C1084      C1085   1.421       .  A
C1084      C1100   1.451       .  S
C1085      C1086   1.425       .  A
C1086      C1089   1.452       .  S
C1087      C1090   1.412       .  A
C1087      C1094   1.407       .  A
C1088      N1105   1.157       .  T
C1089      N1107   1.157       .  T
C1090      C1091   1.415       .  A
C1090      C1095   1.450       .  S
C1091      C1092   1.417       .  A
C1091      C1097   1.450       .  S
C1092      C1093   1.420       .  A
C1093      C1094   1.408       .  A
C1093      C1096   1.452       .  S
C1094      C1098   1.452       .  S
C1095      N1102   1.157       .  T
C1096      N1103   1.157       .  T
C1097      N1101   1.157       .  T
C1098      N1104   1.157       .  T
C1099      N1108   1.157       .  T
C1100      N1106   1.157       .  T
C1109      C1110   1.409       .  A
C1109      C1114   1.415       .  A
C1109      C1127   1.451   1_554  S
C1110      C1115   1.504       .  S
C1110      C1111   1.410       .  A
C1111      C1112   1.413       .  A
C1111      C1116   1.451       .  S
C1112      C1113   1.418       .  A
C1112      C1128   1.450       .  S
C1113      C1114   1.418       .  A
C1114      C1117   1.445       .  S
C1115      C1118   1.407   1_554  A
C1115      C1122   1.407       .  A
C1116      N1133   1.157       .  T
C1117      N1135   1.155   1_554  T
C1118      C1119   1.413       .  A
C1118      C1123   1.454       .  S
C1119      C1120   1.430       .  A
C1119      C1125   1.452       .  S
C1120      C1121   1.428   1_556  A
C1121      C1122   1.418       .  A
C1121      C1124   1.450       .  S
C1122      C1126   1.451       .  S
C1123      N1130   1.157       .  T
C1124      N1131   1.158       .  T
C1125      N1129   1.158       .  T
C1126      N1132   1.157       .  T
C1127      N1136   1.157       .  T
C1128      N1134   1.157       .  T
C1137      C1138   1.415       .  A
C1137      C1142   1.414       .  A
C1137      C1155   1.451       .  S
C1138      C1143   1.509       .  S
C1138      C1139   1.415       .  A
C1139      C1140   1.415       .  A
C1139      C1144   1.450       .  S
C1140      C1141   1.412       .  A
C1140      C1156   1.451       .  S
C1141      C1142   1.412       .  A
C1142      C1145   1.450       .  S
C1143      C1146   1.415       .  A
C1143      C1150   1.415       .  A
C1144      N1161   1.157       .  T
C1145      N1163   1.157       .  T
C1146      C1147   1.418       .  A
C1146      C1151   1.449       .  S
C1147      C1148   1.413       .  A
C1147      C1153   1.449       .  S
C1148      C1149   1.413       .  A
C1149      C1150   1.410       .  A
C1149      C1152   1.451       .  S
C1150      C1154   1.452       .  S
C1151      N1158   1.157       .  T
C1152      N1159   1.157       .  T
C1153      N1157   1.157       .  T
C1154      N1160   1.157       .  T
C1155      N1164   1.157       .  T
C1156      N1162   1.157       .  T
C1165      C1166   1.413       .  A
C1165      C1170   1.413       .  A
C1165      C1183   1.450       .  S
C1166      C1171   1.495       .  S
C1166      C1167   1.410       .  A
C1167      C1168   1.407       .  A
C1167      C1172   1.452       .  S
C1168      C1169   1.413       .  A
C1168      C1184   1.451   1_554  S
C1169      C1170   1.411       .  A
C1170      C1173   1.450       .  S
C1171      C1174   1.412       .  A
C1171      C1178   1.412       .  A
C1172      N1189   1.157       .  T
C1173      N1191   1.157       .  T
C1174      C1175   1.410       .  A
C1174      C1179   1.451   1_554  S
C1175      C1176   1.412       .  A
C1175      C1181   1.452   1_554  S
C1176      C1177   1.412       .  A
C1177      C1178   1.410       .  A
C1177      C1180   1.451       .  S
C1178      C1182   1.451       .  S
C1179      N1186   1.157       .  T
C1180      N1187   1.157       .  T
C1181      N1185   1.158       .  T
C1182      N1188   1.157       .  T
C1183      N1192   1.157       .  T
C1184      N1190   1.157       .  T
C1193      C1194   1.411       .  A
C1193      C1198   1.415       .  A
C1193      C1211   1.450       .  S
C1194      C1199   1.504       .  S
C1194      C1195   1.408       .  A
C1195      C1196   1.415       .  A
C1195      C1200   1.451   1_554  S
C1196      C1197   1.420       .  A
C1196      C1212   1.446       .  S
C1197      C1198   1.418       .  A
C1198      C1201   1.450       .  S
C1199      C1202   1.410   1_554  A
C1199      C1206   1.410       .  A
C1200      N1217   1.157       .  T
C1201      N1219   1.157       .  T
C1202      C1203   1.411       .  A
C1202      C1207   1.452       .  S
C1203      C1204   1.421       .  A
C1203      C1209   1.451       .  S
C1204      C1205   1.423   1_556  A
C1205      C1206   1.418       .  A
C1205      C1208   1.451       .  S
C1206      C1210   1.450       .  S
C1207      N1214   1.157       .  T
C1208      N1215   1.158       .  T
C1209      N1213   1.157       .  T
C1210      N1216   1.157       .  T
C1211      N1220   1.157       .  T
C1212      N1218   1.156   1_554  T
C1221      C1222   1.408       .  A
C1221      C1226   1.407       .  A
C1221      C1239   1.451       .  S
C1222      C1227   1.490   1_556  S
C1222      C1223   1.411   1_556  A
C1223      C1224   1.409       .  A
C1223      C1228   1.451       .  S
C1224      C1225   1.414   1_554  A
C1224      C1240   1.451       .  S
C1225      C1226   1.416       .  A
C1226      C1229   1.452       .  S
C1227      C1230   1.408       .  A
C1227      C1234   1.409   1_554  A
C1228      N1245   1.157       .  T
C1229      N1247   1.157       .  T
C1230      C1231   1.406       .  A
C1230      C1235   1.452       .  S
C1231      C1232   1.418       .  A
C1231      C1237   1.452       .  S
C1232      C1233   1.417       .  A
C1233      C1234   1.410   1_554  A
C1233      C1236   1.451   1_554  S
C1234      C1238   1.451       .  S
C1235      N1242   1.157       .  T
C1236      N1243   1.157       .  T
C1237      N1241   1.157       .  T
C1238      N1244   1.157       .  T
C1239      N1248   1.157       .  T
C1240      N1246   1.157       .  T
C1249      C1250   1.415       .  A
C1249      C1254   1.423       .  A
C1249      C1267   1.448       .  S
C1250      C1255   1.514       .  S
C1250      C1251   1.411       .  A
C1251      C1252   1.412       .  A
C1251      C1256   1.452       .  S
C1252      C1253   1.422       .  A
C1252      C1268   1.452       .  S
C1253      C1254   1.418       .  A
C1254      C1257   1.449       .  S
C1255      C1258   1.413       .  A
C1255      C1262   1.414       .  A
C1256      N1273   1.157       .  T
C1257      N1275   1.157       .  T
C1258      C1259   1.421       .  A
C1258      C1263   1.449       .  S
C1259      C1260   1.419       .  A
C1259      C1265   1.449       .  S
C1260      C1261   1.417       .  A
C1261      C1262   1.415       .  A
C1261      C1264   1.451       .  S
C1262      C1266   1.451       .  S
C1263      N1270   1.157       .  T
C1264      N1271   1.157       .  T
C1265      N1269   1.158       .  T
C1266      N1272   1.157       .  T
C1267      N1276   1.157       .  T
C1268      N1274   1.157       .  T
C1277      C1278   1.408       .  A
C1277      C1282   1.411       .  A
C1277      C1295   1.452       .  S
C1278      C1283   1.501       .  S
C1278      C1279   1.411       .  A
C1279      C1280   1.413       .  A
C1279      C1284   1.451       .  S
C1280      C1281   1.420       .  A
C1280      C1296   1.452       .  S
C1281      C1282   1.424       .  A
C1282      C1285   1.452       .  S
C1283      C1286   1.413       .  A
C1283      C1290   1.412       .  A
C1284      N1301   1.157       .  T
C1285      N1303   1.158       .  T
C1286      C1287   1.411       .  A
C1286      C1291   1.451       .  S
C1287      C1288   1.412       .  A
C1287      C1293   1.450       .  S
C1288      C1289   1.415       .  A
C1289      C1290   1.412       .  A
C1289      C1292   1.451       .  S
C1290      C1294   1.451       .  S
C1291      N1298   1.157       .  T
C1292      N1299   1.157       .  T
C1293      N1297   1.157       .  T
C1294      N1300   1.157       .  T
C1295      N1304   1.157       .  T
C1296      N1302   1.158       .  T
C1305      C1306   1.410       .  A
C1305      C1310   1.410       .  A
C1305      C1323   1.452       .  S
C1306      C1311   1.501       .  S
C1306      C1307   1.412       .  A
C1307      C1308   1.416       .  A
C1307      C1312   1.449       .  S
C1308      C1309   1.413       .  A
C1308      C1324   1.448       .  S
C1309      C1310   1.417       .  A
C1310      C1313   1.451       .  S
C1311      C1314   1.414       .  A
C1311      C1318   1.408       .  A
C1312      N1329   1.157       .  T
C1313      N1331   1.157       .  T
C1314      C1315   1.417       .  A
C1314      C1319   1.449       .  S
C1315      C1316   1.411       .  A
C1315      C1321   1.449       .  S
C1316      C1317   1.416       .  A
C1317      C1318   1.409       .  A
C1317      C1320   1.449       .  S
C1318      C1322   1.452       .  S
C1319      N1326   1.157       .  T
C1320      N1327   1.157       .  T
C1321      N1325   1.157       .  T
C1322      N1328   1.157       .  T
C1323      N1332   1.157       .  T
C1324      N1330   1.157       .  T
C1333      C1334   1.408       .  A
C1333      C1338   1.410       .  A
C1333      C1351   1.452       .  S
C1334      C1339   1.507       .  S
C1334      C1335   1.415       .  A
C1335      C1336   1.420       .  A
C1335      C1340   1.449       .  S
C1336      C1337   1.415       .  A
C1336      C1352   1.449       .  S
C1337      C1338   1.420       .  A
C1338      C1341   1.451       .  S
C1339      C1342   1.413       .  A
C1339      C1346   1.414       .  A
C1340      N1357   1.157       .  T
C1341      N1359   1.157       .  T
C1342      C1343   1.411       .  A
C1342      C1347   1.452       .  S
C1343      C1344   1.415       .  A
C1343      C1349   1.452       .  S
C1344      C1345   1.415       .  A
C1345      C1346   1.419       .  A
C1345      C1348   1.449       .  S
C1346      C1350   1.449       .  S
C1347      N1354   1.157       .  T
C1348      N1355   1.157       .  T
C1349      N1353   1.157       .  T
C1350      N1356   1.157       .  T
C1351      N1360   1.157       .  T
C1352      N1358   1.157       .  T
C1361      C1362   1.408       .  A
C1361      C1366   1.411       .  A
C1361      C1379   1.452       .  S
C1362      C1367   1.500       .  S
C1362      C1363   1.410       .  A
C1363      C1364   1.415       .  A
C1363      C1368   1.451       .  S
C1364      C1365   1.421       .  A
C1364      C1380   1.451       .  S
C1365      C1366   1.421       .  A
C1366      C1369   1.450       .  S
C1367      C1370   1.409       .  A
C1367      C1374   1.413       .  A
C1368      N1385   1.157       .  T
C1369      N1387   1.156       .  T
C1370      C1371   1.405       .  A
C1370      C1375   1.453       .  S
C1371      C1372   1.419       .  A
C1371      C1377   1.454       .  S
C1372      C1373   1.414       .  A
C1373      C1374   1.419       .  A
C1373      C1376   1.448       .  S
C1374      C1378   1.448       .  S
C1375      N1382   1.157       .  T
C1376      N1383   1.157       .  T
C1377      N1381   1.157       .  T
C1378      N1384   1.157       .  T
C1379      N1388   1.157       .  T
C1380      N1386   1.158       .  T
C1389      C1390   1.411       .  A
C1389      C1394   1.417       .  A
C1389      C1407   1.450       .  S
C1390      C1395   1.507       .  S
C1390      C1391   1.408       .  A
C1391      C1392   1.416       .  A
C1391      C1396   1.451       .  S
C1392      C1393   1.421       .  A
C1392      C1408   1.445       .  S
C1393      C1394   1.417       .  A
C1394      C1397   1.449       .  S
C1395      C1398   1.409       .  A
C1395      C1402   1.409       .  A
C1396      N1413   1.157       .  T
C1397      N1415   1.157       .  T
C1398      C1399   1.419       .  A
C1398      C1403   1.450       .  S
C1399      C1400   1.422       .  A
C1399      C1405   1.446       .  S
C1400      C1401   1.424       .  A
C1401      C1402   1.413       .  A
C1401      C1404   1.452       .  S
C1402      C1406   1.452       .  S
C1403      N1410   1.157       .  T
C1404      N1411   1.158       .  T
C1405      N1409   1.156       .  T
C1406      N1412   1.157       .  T
C1407      N1416   1.157       .  T
C1408      N1414   1.155       .  T
C1417      C1418   1.410       .  A
C1417      C1422   1.411       .  A
C1417      C1435   1.451       .  S
C1418      C1423   1.503       .  S
C1418      C1419   1.411       .  A
C1419      C1420   1.414       .  A
C1419      C1424   1.452       .  S
C1420      C1421   1.421       .  A
C1420      C1436   1.450       .  S
C1421      C1422   1.421       .  A
C1422      C1425   1.452       .  S
C1423      C1426   1.409       .  A
C1423      C1430   1.411       .  A
C1424      N1441   1.157       .  T
C1425      N1443   1.158       .  T
C1426      C1427   1.411       .  A
C1426      C1431   1.453       .  S
C1427      C1428   1.425       .  A
C1427      C1433   1.452       .  S
C1428      C1429   1.421       .  A
C1429      C1430   1.415       .  A
C1429      C1432   1.451       .  S
C1430      C1434   1.451       .  S
C1431      N1438   1.157       .  T
C1432      N1439   1.158       .  T
C1433      N1437   1.157       .  T
C1434      N1440   1.157       .  T
C1435      N1444   1.157       .  T
C1436      N1442   1.157       .  T
C1445      C1446   1.412       .  A
C1445      C1450   1.412       .  A
C1445      C1463   1.450       .  S
C1446      C1451   1.502       .  S
C1446      C1447   1.414       .  A
C1447      C1448   1.413       .  A
C1447      C1452   1.450       .  S
C1448      C1449   1.411       .  A
C1448      C1464   1.451       .  S
C1449      C1450   1.413       .  A
C1450      C1453   1.451       .  S
C1451      C1454   1.412       .  A
C1451      C1458   1.412       .  A
C1452      N1469   1.157       .  T
C1453      N1471   1.157       .  T
C1454      C1455   1.413       .  A
C1454      C1459   1.450       .  S
C1455      C1456   1.415       .  A
C1455      C1461   1.451       .  S
C1456      C1457   1.413       .  A
C1457      C1458   1.413       .  A
C1457      C1460   1.449       .  S
C1458      C1462   1.450       .  S
C1459      N1466   1.157       .  T
C1460      N1467   1.157       .  T
C1461      N1465   1.157       .  T
C1462      N1468   1.157       .  T
C1463      N1472   1.157       .  T
C1464      N1470   1.157       .  T
C1473      C1474   1.407       .  A
C1473      C1478   1.409       .  A
C1473      C1491   1.453       .  S
C1474      C1479   1.498       .  S
C1474      C1475   1.411       .  A
C1475      C1476   1.416       .  A
C1475      C1480   1.450       .  S
C1476      C1477   1.418       .  A
C1476      C1492   1.450       .  S
C1477      C1478   1.423       .  A
C1478      C1481   1.451       .  S
C1479      C1482   1.409       .  A
C1479      C1486   1.411       .  A
C1480      N1497   1.157       .  T
C1481      N1499   1.157       .  T
C1482      C1483   1.407       .  A
C1482      C1487   1.453       .  S
C1483      C1484   1.418       .  A
C1483      C1489   1.451       .  S
C1484      C1485   1.417       .  A
C1485      C1486   1.416       .  A
C1485      C1488   1.450       .  S
C1486      C1490   1.449       .  S
C1487      N1494   1.157       .  T
C1488      N1495   1.157       .  T
C1489      N1493   1.157       .  T
C1490      N1496   1.157       .  T
C1491      N1500   1.157       .  T
C1492      N1498   1.157       .  T
C1501      C1502   1.410       .  A
C1501      C1506   1.408       .  A
C1501      C1519   1.453       .  S
C1502      C1507   1.499       .  S
C1502      C1503   1.411       .  A
C1503      C1504   1.416       .  A
C1503      C1508   1.449       .  S
C1504      C1505   1.417       .  A
C1504      C1520   1.450       .  S
C1505      C1506   1.417       .  A
C1506      C1509   1.452       .  S
C1507      C1510   1.412       .  A
C1507      C1514   1.406       .  A
C1508      N1525   1.157       .  T
C1509      N1527   1.157       .  T
C1510      C1511   1.417       .  A
C1510      C1515   1.450       .  S
C1511      C1512   1.417       .  A
C1511      C1517   1.449       .  S
C1512      C1513   1.423       .  A
C1513      C1514   1.408       .  A
C1513      C1516   1.452       .  S
C1514      C1518   1.452       .  S
C1515      N1522   1.157       .  T
C1516      N1523   1.158       .  T
C1517      N1521   1.157       .  T
C1518      N1524   1.157       .  T
C1519      N1528   1.157       .  T
C1520      N1526   1.157       .  T
C1529      C1530   1.414   1_556  A
C1529      C1534   1.415       .  A
C1529      C1547   1.450       .  S
C1530      C1535   1.508       .  S
C1530      C1531   1.412       .  A
C1531      C1532   1.416       .  A
C1531      C1536   1.449       .  S
C1532      C1533   1.414   1_554  A
C1532      C1548   1.450       .  S
C1533      C1534   1.411       .  A
C1534      C1537   1.450       .  S
C1535      C1538   1.408       .  A
C1535      C1542   1.410       .  A
C1536      N1553   1.157       .  T
C1537      N1555   1.157       .  T
C1538      C1539   1.419       .  A
C1538      C1543   1.451   1_554  S
C1539      C1540   1.423       .  A
C1539      C1545   1.444       .  S
C1540      C1541   1.422       .  A
C1541      C1542   1.415       .  A
C1541      C1544   1.451       .  S
C1542      C1546   1.451       .  S
C1543      N1550   1.157       .  T
C1544      N1551   1.157       .  T
C1545      N1549   1.155   1_554  T
C1546      N1552   1.157       .  T
C1547      N1556   1.157       .  T
C1548      N1554   1.157       .  T
C1557      C1558   1.408   1_554  A
C1557      C1562   1.410       .  A
C1557      C1575   1.453       .  S
C1558      C1563   1.494       .  S
C1558      C1559   1.409       .  A
C1559      C1560   1.411       .  A
C1559      C1564   1.450       .  S
C1560      C1561   1.417       .  A
C1560      C1576   1.452       .  S
C1561      C1562   1.417   1_556  A
C1562      C1565   1.447       .  S
C1563      C1566   1.409   1_556  A
C1563      C1570   1.412       .  A
C1564      N1581   1.158       .  T
C1565      N1583   1.157       .  T
C1566      C1567   1.408       .  A
C1566      C1571   1.451       .  S
C1567      C1568   1.414       .  A
C1567      C1573   1.451       .  S
C1568      C1569   1.411       .  A
C1569      C1570   1.411   1_554  A
C1569      C1572   1.451       .  S
C1570      C1574   1.450       .  S
C1571      N1578   1.157       .  T
C1572      N1579   1.157       .  T
C1573      N1577   1.158       .  T
C1574      N1580   1.158       .  T
C1575      N1584   1.156       .  T
C1576      N1582   1.156       .  T
C1585      C1586   1.404       .  A
C1585      C1590   1.407       .  A
C1585      C1603   1.454       .  S
C1586      C1591   1.494       .  S
C1586      C1587   1.409       .  A
C1587      C1588   1.415       .  A
C1587      C1592   1.451       .  S
C1588      C1589   1.421       .  A
C1588      C1604   1.450       .  S
C1589      C1590   1.429       .  A
C1590      C1593   1.453       .  S
C1591      C1594   1.407       .  A
C1591      C1598   1.410       .  A
C1592      N1609   1.157       .  T
C1593      N1611   1.158       .  T
C1594      C1595   1.408       .  A
C1594      C1599   1.452       .  S
C1595      C1596   1.422       .  A
C1595      C1601   1.453       .  S
C1596      C1597   1.416       .  A
C1597      C1598   1.412       .  A
C1597      C1600   1.450       .  S
C1598      C1602   1.450       .  S
C1599      N1606   1.157       .  T
C1600      N1607   1.157       .  T
C1601      N1605   1.158       .  T
C1602      N1608   1.157       .  T
C1603      N1612   1.157       .  T
C1604      N1610   1.157       .  T
C1613      C1614   1.408       .  A
C1613      C1618   1.412       .  A
C1613      C1631   1.450       .  S
C1614      C1619   1.490       .  S
C1614      C1615   1.406       .  A
C1615      C1616   1.405       .  A
C1615      C1620   1.453       .  S
C1616      C1617   1.423       .  A
C1616      C1632   1.454       .  S
C1617      C1618   1.419       .  A
C1618      C1621   1.450       .  S
C1619      C1622   1.405       .  A
C1619      C1626   1.409       .  A
C1620      N1637   1.157       .  T
C1621      N1639   1.157       .  T
C1622      C1623   1.406       .  A
C1622      C1627   1.453       .  S
C1623      C1624   1.423       .  A
C1623      C1629   1.453       .  S
C1624      C1625   1.417       .  A
C1625      C1626   1.411       .  A
C1625      C1628   1.451       .  S
C1626      C1630   1.451       .  S
C1627      N1634   1.157       .  T
C1628      N1635   1.157       .  T
C1629      N1633   1.158       .  T
C1630      N1636   1.157       .  T
C1631      N1640   1.157       .  T
C1632      N1638   1.158       .  T
C1641      C1642   1.413       .  A
C1641      C1646   1.415       .  A
C1641      C1659   1.449       .  S
C1642      C1647   1.503       .  S
C1642      C1643   1.411       .  A
C1643      C1644   1.413       .  A
C1643      C1648   1.450       .  S
C1644      C1645   1.413       .  A
C1644      C1660   1.450       .  S
C1645      C1646   1.410       .  A
C1646      C1649   1.450       .  S
C1647      C1650   1.411       .  A
C1647      C1654   1.412       .  A
C1648      N1665   1.157       .  T
C1649      N1667   1.157       .  T
C1650      C1651   1.409       .  A
C1650      C1655   1.452       .  S
C1651      C1652   1.419       .  A
C1651      C1657   1.453       .  S
C1652      C1653   1.415       .  A
C1653      C1654   1.419       .  A
C1653      C1656   1.447       .  S
C1654      C1658   1.448       .  S
C1655      N1662   1.157       .  T
C1656      N1663   1.157       .  T
C1657      N1661   1.157       .  T
C1658      N1664   1.157       .  T
C1659      N1668   1.157       .  T
C1660      N1666   1.157       .  T
C1669      C1670   1.413       .  A
C1669      C1674   1.414       .  A
C1669      C1687   1.449       .  S
C1670      C1675   1.497       .  S
C1670      C1671   1.409   1_554  A
C1671      C1672   1.407       .  A
C1671      C1676   1.452       .  S
C1672      C1673   1.412       .  A
C1672      C1688   1.448       .  S
C1673      C1674   1.411   1_556  A
C1674      C1677   1.449       .  S
C1675      C1678   1.409       .  A
C1675      C1682   1.411       .  A
C1676      N1693   1.157       .  T
C1677      N1695   1.157       .  T
C1678      C1679   1.410       .  A
C1678      C1683   1.452   1_554  S
C1679      C1680   1.420       .  A
C1679      C1685   1.452       .  S
C1680      C1681   1.417       .  A
C1681      C1682   1.412       .  A
C1681      C1684   1.451       .  S
C1682      C1686   1.451       .  S
C1683      N1690   1.157       .  T
C1684      N1691   1.157       .  T
C1685      N1689   1.158   1_554  T
C1686      N1692   1.157       .  T
C1687      N1696   1.157       .  T
C1688      N1694   1.156       .  T
