geometry optimzed in LAMMPS
_audit_creation_date              2020-12-01 
_audit_creation_method            'lammps2cif' 
_symmetry_space_group_name_H-M    'P1' 
_symmetry_Int_Tables_number       1 
_symmetry_cell_setting            triclinic 
loop_ 
_symmetry_equiv_pos_as_xyz 
  x,y,z 
_cell_length_a                    52.06018602 
_cell_length_b                    51.916760286259 
_cell_length_c                    32.47701612783218 
_cell_angle_alpha                 90.08785412315196 
_cell_angle_beta                  89.92585551617091 
_cell_angle_gamma                 120.15587783075291 
loop_ 
_atom_site_label 
_atom_site_type_symbol 
_atom_site_fract_x 
_atom_site_fract_y 
_atom_site_fract_z 
_atom_site_charge 
O1          O  0.82973550  0.27884770  0.16989744    -0.80900
O2          O  0.83718767  0.22274521  0.32752950    -0.65600
O3          O  0.82625685  0.27310876  0.25480879    -1.12200
C4          C  0.93071646  0.33301254  0.27178143     1.06000
O5          O  0.85908725  0.26070576  0.37016580    -0.78800
O6          O  0.87355271  0.31622833  0.34764477    -0.66400
Ni7        Ni  0.79942101  0.25589526  0.20978948     1.34900
C8          C  0.86790235  0.33166648  0.32311242     0.84700
O9          O  0.78908366  0.21895434  0.29476960    -0.79300
O10         O  0.76677372  0.23170108  0.24682327    -0.89600
C11         C  0.84840283  0.23319359  0.36233222     0.84300
O12         O  0.80509175  0.22291791  0.19734006    -0.67800
O13         O  0.92397429  0.32335247  0.30881070    -0.87100
C14         C  0.82218801  0.21458093  0.21252167     0.85100
C15         C  0.76584506  0.21676076  0.27859368     1.06700
H16         H  0.88195454  0.26571310  0.27491583     0.38500
O17         O  0.87158601  0.27502131  0.28719789    -1.09700
O18         O  0.86706907  0.32811805  0.28409609    -0.66400
Ni19       Ni  0.86834794  0.29944767  0.24687471     1.26300
O20         O  0.83520053  0.22436583  0.24692941    -0.66600
O21         O  0.91127068  0.32480636  0.24281044    -0.78900
C22         C  0.84919393  0.30646597  0.16960221     0.84500
O23         O  0.86283327  0.32032126  0.20219698    -0.66100
Ni24       Ni  0.89063716  0.29183419  0.33786825     1.27400
Ni25       Ni  0.83047456  0.24678499  0.29061926     1.26100
H26         H  0.81863852  0.28335848  0.27109359     0.39100
O27         O  0.93771402  0.16851485  0.67300287    -0.80900
O28         O  0.88260109  0.17437381  0.51270226    -0.65600
O29         O  0.93310847  0.16495189  0.58710335    -1.12200
C30         C  0.99180685  0.26877242  0.56629759     1.06000
O31         O  0.92060413  0.19468894  0.47048602    -0.78800
O32         O  0.97499875  0.20792241  0.49540386    -0.66400
Ni33       Ni  0.91588917  0.13805193  0.63215703     1.34900
C34         C  0.99214437  0.20568544  0.52093489     0.84700
O35         O  0.87959428  0.12667542  0.54581646    -0.79300
O36         O  0.89300745  0.10527406  0.59446369    -0.89600
C37         C  0.89336681  0.18528270  0.47792632     0.84300
O38         O  0.88189048  0.14234709  0.64310860    -0.67800
O39         O  0.98381502  0.26052364  0.52910289    -0.87100
C40         C  0.87306701  0.15894548  0.62738871     0.85100
C41         C  0.87833953  0.10392183  0.56216352     1.06700
H42         H  0.92495487  0.22002524  0.56332358     0.38500
O43         O  0.93446837  0.20950900  0.55267918    -1.09700
O44         O  0.98895973  0.20684901  0.55977855    -0.66400
Ni45       Ni  0.95849540  0.20736773  0.59444654     1.26300
O46         O  0.88351999  0.17257592  0.59342031    -0.66600
O47         O  0.98281146  0.25048673  0.59690518    -0.78900
C48         C  0.96457214  0.18990550  0.67389332     0.84500
O49         O  0.97851992  0.20321138  0.64112722    -0.66100
Ni50       Ni  0.95195282  0.22675055  0.50150465     1.27400
Ni51       Ni  0.90668103  0.16823768  0.55020497     1.26100
H52         H  0.94387865  0.15764454  0.57130887     0.39100
O53         O  0.88100451  0.39004012  0.00880319    -0.80900
O54         O  0.94821111  0.44766077  0.85311883    -0.65600
O55         O  0.88550268  0.39684054  0.92379334    -1.12200
C56         C  0.93213266  0.33822185  0.91136166     1.06000
O57         O  0.93420754  0.40935174  0.81192171    -0.78800
O58         O  0.89379754  0.35365398  0.83228295    -0.66400
Ni59       Ni  0.87565780  0.41426007  0.96864314     1.34900
C60         C  0.87155338  0.33847025  0.85524266     0.84700
O61         O  0.90188592  0.45007678  0.88126419    -0.79300
O62         O  0.86885027  0.43975078  0.93178785    -0.89600
C63         C  0.95100180  0.43672823  0.82005311     0.84300
O64         O  0.91449240  0.44658632  0.98279658    -0.67800
O65         O  0.93640796  0.34781367  0.87433107    -0.87100
C66         C  0.93984914  0.45633997  0.96632865     0.85100
C67         C  0.88187362  0.45344562  0.89870721     1.06700
H68         H  0.94925485  0.40523247  0.90763282     0.38500
O69         O  0.93020513  0.39561012  0.89417370    -1.09700
O70         O  0.87258870  0.34211799  0.89428535    -0.66400
Ni71       Ni  0.90146194  0.37073886  0.93299175     1.26300
O72         O  0.94295845  0.44700600  0.93157161    -0.66600
O73         O  0.91947817  0.34591235  0.93896172    -0.78900
C74         C  0.87388820  0.36265070  0.00900092     0.84500
O75         O  0.87401439  0.34925524  0.97617441    -0.66100
Ni76       Ni  0.93469933  0.37889159  0.84458677     1.27400
Ni77       Ni  0.91651985  0.42321239  0.88833139     1.26100
H78         H  0.86778327  0.38644403  0.90735247     0.39100
O79         O  0.10303813  0.49902693  0.50337097    -0.80900
O80         O  0.03462874  0.48490320  0.66019796    -0.65600
O81         O  0.09784833  0.49985681  0.58852648    -1.12200
C82         C  0.05670889  0.39545065  0.60106078     1.06000
O83         O  0.05200762  0.46349956  0.70116795    -0.78800
O84         O  0.09452598  0.45145261  0.67842193    -0.66400
Ni85       Ni  0.10777701  0.52770241  0.54498361     1.34900
C86         C  0.11587890  0.45785601  0.65395855     0.84700
O87         O  0.07894853  0.53522473  0.63119977    -0.79300
O88         O  0.11410396  0.55902296  0.58365357    -0.89600
C89         C  0.03514782  0.47432002  0.69486502     0.84300
O90         O  0.06870407  0.52035264  0.53152666    -0.67800
O91         O  0.05293851  0.40064432  0.63847597    -0.87100
C92         C  0.04293302  0.50285474  0.54590655     0.85100
C93         C  0.09997286  0.55913686  0.61588745     1.06700
H94         H  0.03533577  0.44209175  0.60570959     0.38500
O95         O  0.05470577  0.45281149  0.61833637    -1.09700
O96         O  0.11346386  0.45959638  0.61518993    -0.66400
Ni97       Ni  0.08341195  0.45812401  0.57852859     1.26300
O98         O  0.03911699  0.48917638  0.57988272    -0.66600
O99         O  0.06716461  0.41560155  0.57289148    -0.78900
C100        C  0.11068133  0.47919332  0.50230705     0.84500
O101        O  0.11067302  0.46524915  0.53451706    -0.66100
Ni102      Ni  0.05299365  0.43304199  0.66812745     1.27400
Ni103      Ni  0.06620407  0.49368561  0.62385925     1.26100
H104        H  0.11542294  0.50757622  0.60540715     0.39100
O105        O  0.05280261  0.22977146  0.83230916    -0.80900
O106        O  0.10754813  0.29218753  0.99319729    -0.65600
O107        O  0.05770404  0.23211783  0.91810964    -1.12200
C108        C  0.99840237  0.27682462  0.93733812     1.06000
O109        O  0.06908959  0.27456028  0.03445811    -0.78800
O110        O  0.01448071  0.23392673  0.00936356    -0.66400
Ni111      Ni  0.07520688  0.22241667  0.87348354     1.34900
C112        C  0.99833225  0.21393345  0.98364928     0.84700
O113        O  0.11079856  0.24747709  0.96112304    -0.79300
O114        O  0.09899427  0.21374835  0.91111956    -0.89600
C115        C  0.09638882  0.29246734  0.02749958     0.84300
O116        O  0.10826650  0.26123272  0.86226421    -0.67800
O117        O  0.00733394  0.27808122  0.97437784    -0.87100
C118        C  0.11753763  0.28663792  0.87863716     0.85100
C119        C  0.11315655  0.22681693  0.94395774     1.06700
H120        H  0.06585753  0.29543808  0.94102638     0.38500
O121        O  0.05615587  0.27545824  0.95193870    -1.09700
O122        O  0.00206273  0.21788147  0.94485727    -0.66400
Ni123      Ni  0.03218762  0.24889339  0.91014349     1.26300
O124        O  0.10771660  0.28977102  0.91308245    -0.66600
O125        O  0.00733339  0.26714611  0.90708349    -0.78900
C126        C  0.02589434  0.22392765  0.83138102     0.84500
O127        O  0.01209754  0.22403576  0.86385763    -0.66100
Ni128      Ni  0.03850021  0.27582202  0.00275136     1.27400
Ni129      Ni  0.08380546  0.26192359  0.95552693     1.26100
H130        H  0.04684560  0.21396573  0.93376374     0.39100
O131        O  0.16113542  0.44774951  0.33935545    -0.80900
O132        O  0.15415528  0.38697791  0.17667091    -0.65600
O133        O  0.16367500  0.44562061  0.25395946    -1.12200
C134        C  0.05843238  0.39704960  0.24044540     1.06000
O135        O  0.12977467  0.40195883  0.13766937    -0.78800
O136        O  0.11254526  0.43953138  0.16434423    -0.66400
Ni137      Ni  0.19099074  0.45530547  0.29840144     1.34900
C138        C  0.11908205  0.46080629  0.18911354     0.84700
O139        O  0.20181026  0.43245230  0.20891985    -0.79300
O140        O  0.22362371  0.46448845  0.26085638    -0.89600
C141        C  0.14154885  0.38596321  0.14306285     0.84300
O142        O  0.18518230  0.41639937  0.30948167    -0.67800
O143        O  0.06428067  0.39376421  0.20314889    -0.87100
C144        C  0.16995083  0.39120617  0.29212840     0.85100
C145        C  0.22483171  0.45267060  0.22689096     1.06700
H146        H  0.10951158  0.38163048  0.23334010     0.38500
O147        O  0.11869574  0.40130434  0.22146722    -1.09700
O148        O  0.12148644  0.45841871  0.22777928    -0.66400
Ni149      Ni  0.12145719  0.42817201  0.26301645     1.26300
O150        O  0.15791335  0.38845659  0.25701445    -0.66600
O151        O  0.07852884  0.40914102  0.26844318    -0.78900
C152        C  0.14029527  0.45391503  0.34049695     0.84500
O153        O  0.12637017  0.45372706  0.30824397    -0.66100
Ni154      Ni  0.09788944  0.39829668  0.17213210     1.27400
Ni155      Ni  0.16018192  0.41639682  0.21573973     1.26100
H156        H  0.17064331  0.46389131  0.23872128     0.39100
O157        O  0.13210769  0.74352883  0.63701284    -0.80900
O158        O  0.12554118  0.68734135  0.80895237    -0.65600
O159        O  0.11782508  0.73000396  0.71957058    -1.12200
C160        C  0.22336173  0.78778185  0.72981195     1.06000
O161        O  0.15824914  0.72976039  0.83993231    -0.78800
O162        O  0.18550513  0.78527246  0.80828405    -0.66400
Ni163      Ni  0.10002699  0.71227043  0.66867499     1.34900
C164        C  0.16862603  0.79370255  0.79262020     0.84700
O165        O  0.07755983  0.68119747  0.76433364    -0.79300
O166        O  0.06617683  0.68078181  0.69714966    -0.89600
C167        C  0.13858536  0.70220262  0.84142769     0.84300
O168        O  0.11752317  0.68781618  0.66184899    -0.67800
O169        O  0.22210755  0.77286204  0.76184285    -0.87100
C170        C  0.12063885  0.67134365  0.68778128     0.85100
C171        C  0.05875314  0.67192954  0.73435023     1.06700
H172        H  0.17032288  0.72195130  0.73891763     0.38500
O173        O  0.16266058  0.73258477  0.75442875    -1.09700
O174        O  0.15391509  0.78191374  0.75978677    -0.66400
Ni175      Ni  0.15895889  0.75850310  0.71730222     1.26300
O176        O  0.12126275  0.67589209  0.72668315    -0.66600
O177        O  0.20043373  0.78630183  0.71365544    -0.78900
C178        C  0.14205248  0.77103851  0.64436253     0.84500
O179        O  0.15266509  0.78194123  0.67916996    -0.66100
Ni180      Ni  0.18919460  0.75067452  0.79952749     1.27400
Ni181      Ni  0.12049333  0.70641706  0.76158838     1.26100
H182        H  0.10706727  0.73944988  0.73051636     0.39100
O183        O  0.07002997  0.80518864  0.53025807    -0.80900
O184        O  0.01293760  0.80160100  0.36210117    -0.65600
O185        O  0.05863962  0.79368561  0.44710926    -1.12200
C186        C  0.11588592  0.89981736  0.43875460     1.06000
O187        O  0.05373098  0.83488815  0.32945077    -0.78800
O188        O  0.10949047  0.85817419  0.35744788    -0.66400
Ni189      Ni  0.04128307  0.77295801  0.49676844     1.34900
C190        C  0.11970090  0.84349881  0.37545705     0.84700
O191        O  0.01005067  0.75392054  0.40139790    -0.79300
O192        O  0.01165649  0.73913567  0.46639215    -0.89600
C193        C  0.02622003  0.81518876  0.32932711     0.84300
O194        O  0.01463090  0.78721704  0.50607791    -0.67800
O195        O  0.10264175  0.89833304  0.40499118    -0.87100
C196        C  0.99988492  0.79390245  0.48179480     0.85100
C197        C  0.00231100  0.73379386  0.42921244     1.06700
H198        H  0.04914731  0.84644746  0.43014864     0.38500
O199        O  0.05995159  0.83893086  0.41474117    -1.09700
O200        O  0.11074704  0.83209890  0.41089587    -0.66400
Ni201      Ni  0.08582709  0.83518041  0.45233944     1.26300
O202        O  0.00482392  0.79699594  0.44311455    -0.66600
O203        O  0.11224039  0.87693844  0.45810588    -0.78900
C204        C  0.09776779  0.81663053  0.52475757     0.84500
O205        O  0.10937688  0.82891899  0.49092286    -0.66100
Ni206      Ni  0.07748141  0.86526482  0.36910738     1.27400
Ni207      Ni  0.03428533  0.79669404  0.40646192     1.26100
H208        H  0.06867889  0.78414650  0.43463268     0.39100
O209        O  0.85930780  0.60837202  0.86583097    -0.80900
O210        O  0.86564964  0.55395982  0.69811348    -0.65600
O211        O  0.87219590  0.60700821  0.78362072    -1.12200
C212        C  0.76611703  0.55651793  0.77738814     1.06000
O213        O  0.82969772  0.55774658  0.66646260    -0.78800
O214        O  0.80631515  0.59029124  0.69272748    -0.66400
Ni215      Ni  0.89134839  0.60963772  0.83433737     1.34900
C216        C  0.82182331  0.61579193  0.70911670     0.84700
O217        O  0.91268982  0.59820017  0.74010147    -0.79300
O218        O  0.92521144  0.61219806  0.80626702    -0.89600
C219        C  0.85169255  0.55329559  0.66549237     0.84300
O220        O  0.87481391  0.56801832  0.84351135    -0.67800
O221        O  0.76734479  0.54384868  0.74417247    -0.87100
C222        C  0.87045679  0.54717418  0.81895564     0.85100
C223        C  0.93193320  0.60905562  0.76943299     1.06700
H224        H  0.82028471  0.54449309  0.76795889     0.38500
O225        O  0.82734928  0.56232918  0.75166939    -1.09700
O226        O  0.83369373  0.61931994  0.74443531    -0.66400
Ni227      Ni  0.83079508  0.59271197  0.78784841     1.26300
O228        O  0.86951470  0.54974272  0.77998932    -0.66600
O229        O  0.78913267  0.57728762  0.79449550    -0.78900
C230        C  0.84879290  0.62526055  0.85808144     0.84500
O231        O  0.83698489  0.62382161  0.82377298    -0.66100
Ni232      Ni  0.79999576  0.55161056  0.70699556     1.27400
Ni233      Ni  0.86976950  0.57955043  0.74342555     1.26100
H234        H  0.88196818  0.62663461  0.77148161     0.39100
O235        O  0.92063246  0.73124700  0.97013740    -0.80900
O236        O  0.98173541  0.78656027  0.13689413    -0.65600
O237        O  0.93536092  0.73304286  0.05211084    -1.12200
C238        C  0.87904389  0.78261697  0.06098903     1.06000
O239        O  0.94138806  0.78070507  0.16954767    -0.78800
O240        O  0.88526027  0.74903505  0.14298288    -0.66400
Ni241      Ni  0.95177316  0.73048937  0.00131288     1.34900
C242        C  0.87602751  0.72355875  0.12692082     0.84700
O243        O  0.98406167  0.74126932  0.09592469    -0.79300
O244        O  0.98290525  0.72790129  0.02952726    -0.89600
C245        C  0.96853115  0.78736503  0.16954740     0.84300
O246        O  0.97713117  0.77219137  0.99191881    -0.67800
O247        O  0.89373942  0.79611661  0.09322532    -0.87100
C248        C  0.99382239  0.79276667  0.01668688     0.85100
C249        C  0.99194608  0.72987852  0.06661572     1.06700
H250        H  0.94571708  0.79544363  0.06810980     0.38500
O251        O  0.93502064  0.77755751  0.08442029    -1.09700
O252        O  0.88534372  0.72023457  0.09229545    -0.66400
Ni253      Ni  0.90803271  0.74697955  0.04874872     1.26300
O254        O  0.98995867  0.78995905  0.05561010    -0.66600
O255        O  0.88111254  0.76164113  0.04406279    -0.78900
C256        C  0.89332740  0.71405208  0.97864175     0.84500
O257        O  0.88309815  0.71572587  0.01303024    -0.66100
Ni258      Ni  0.91821328  0.78770292  0.12973370     1.27400
Ni259      Ni  0.96022129  0.76042309  0.09228750     1.26100
H260        H  0.92570834  0.71340198  0.06416377     0.39100
O261        O  0.05808464  0.59652818  0.20260390    -0.80900
O262        O  0.11077238  0.65530219  0.03268649    -0.65600
O263        O  0.05858164  0.60995035  0.11971142    -1.12200
C264        C  0.10859884  0.55438816  0.11066267     1.06000
O265        O  0.10380176  0.61428133  0.00070817    -0.78800
O266        O  0.07351634  0.55814604  0.02953004    -0.66400
Ni267      Ni  0.05628076  0.62689461  0.17043452     1.34900
C268        C  0.04826442  0.54859974  0.04624516     0.84700
O269        O  0.06703775  0.65891928  0.07565608    -0.79300
O270        O  0.05298368  0.65764785  0.14180998    -0.89600
C271        C  0.11081479  0.64159512  0.99993277     0.84300
O272        O  0.09782571  0.65246630  0.17859962    -0.67800
O273        O  0.12143922  0.56862541  0.07783839    -0.87100
C274        C  0.11872239  0.66817152  0.15370418     0.85100
C275        C  0.05571966  0.66701973  0.10475383     1.06700
H276        H  0.12048499  0.61999296  0.10175788     0.38500
O277        O  0.10237388  0.60915146  0.08611806    -1.09700
O278        O  0.04531292  0.55869083  0.08060832    -0.66400
Ni279      Ni  0.07274636  0.58274824  0.12318900     1.26300
O280        O  0.11585776  0.66414066  0.11478370    -0.66600
O281        O  0.08780902  0.55630575  0.12813714    -0.78900
C282        C  0.04147005  0.56892910  0.19507449     0.84500
O283        O  0.04264515  0.55838364  0.16061886    -0.66100
Ni284      Ni  0.11197805  0.59200840  0.04085976     1.27400
Ni285      Ni  0.08550602  0.63450746  0.07866106     1.26100
H286        H  0.03892710  0.60002047  0.10797930     0.39100
O287        O  0.93052712  0.53051402  0.30113607    -0.80900
O288        O  0.88101062  0.54096354  0.47065531    -0.65600
O289        O  0.93217619  0.54542622  0.38359880    -1.12200
C290        C  0.87990188  0.43951618  0.39301583     1.06000
O291        O  0.88592423  0.50565719  0.50297297    -0.78800
O292        O  0.91562267  0.47917460  0.47411257    -0.66400
Ni293      Ni  0.93448108  0.56389797  0.33250297     1.34900
C294        C  0.94103989  0.49442642  0.45744585     0.84700
O295        O  0.92629666  0.58777924  0.42751111    -0.79300
O296        O  0.93977285  0.59873245  0.36076021    -0.89600
C297        C  0.88015866  0.52684281  0.50327592     0.84300
O298        O  0.89318848  0.54906709  0.32526865    -0.67800
O299        O  0.86731476  0.44142703  0.42583551    -0.87100
C300        C  0.87272247  0.54483263  0.35026867     0.85100
C301        C  0.93877178  0.60655668  0.39781332     1.06700
H302        H  0.86969116  0.49477455  0.40190755     0.38500
O303        O  0.88774082  0.50169486  0.41756453    -1.09700
O304        O  0.94451140  0.50723017  0.42286157    -0.66400
Ni305      Ni  0.91699088  0.50385264  0.38048867     1.26300
O306        O  0.87585711  0.54437763  0.38918254    -0.66600
O307        O  0.90104738  0.46208088  0.37575240    -0.78900
C308        C  0.94728022  0.51982248  0.30823966     0.84500
O309        O  0.94659187  0.50862847  0.34287411    -0.66100
Ni310      Ni  0.87738938  0.47482936  0.46274905     1.27400
Ni311      Ni  0.90594093  0.54435545  0.42482278     1.26100
H312        H  0.95194247  0.55499118  0.39496661     0.39100
O313        O  0.71814858  0.55980188  0.16259811    -0.80900
O314        O  0.77665992  0.62289999  0.32181880    -0.65600
O315        O  0.72429205  0.56314817  0.24788618    -1.12200
C316        C  0.66926266  0.61250238  0.26975269     1.06000
O317        O  0.73878411  0.60595990  0.36391733    -0.78800
O318        O  0.68288357  0.56655464  0.33982789    -0.66400
Ni319      Ni  0.74078626  0.55239359  0.20283308     1.34900
C320        C  0.66590473  0.54702967  0.31402681     0.84700
O321        O  0.77762019  0.57714578  0.28918139    -0.79300
O322        O  0.76459944  0.54312794  0.23938691    -0.89600
C323        C  0.76616262  0.62354327  0.35648480     0.84300
O324        O  0.77418638  0.59092143  0.19049039    -0.67800
O325        O  0.67765895  0.61256400  0.30674755    -0.87100
C326        C  0.78405164  0.61632709  0.20716210     0.85100
C327        C  0.77926148  0.55612959  0.27183057     1.06700
H328        H  0.73512028  0.62754324  0.27163961     0.38500
O329        O  0.72494515  0.60752239  0.28236317    -1.09700
O330        O  0.66946990  0.55125214  0.27531903    -0.66400
Ni331      Ni  0.70012727  0.58166207  0.24072875     1.26300
O332        O  0.77492800  0.61969326  0.24197019    -0.66600
O333        O  0.67707101  0.60194094  0.23913644    -0.78900
C334        C  0.69134203  0.55419104  0.16241480     0.84500
O335        O  0.67877037  0.55713034  0.19449144    -0.66100
Ni336      Ni  0.70828626  0.60847390  0.33372119     1.27400
Ni337      Ni  0.75149726  0.59264548  0.28483774     1.26100
H338        H  0.71302773  0.54514175  0.26370136     0.39100
O339        O  0.82875477  0.77917818  0.66771669    -0.80900
O340        O  0.82495326  0.71537955  0.51050852    -0.65600
O341        O  0.83360811  0.77647792  0.58271586    -1.12200
C342        C  0.72954187  0.72963575  0.55980956     1.06000
O343        O  0.80479274  0.73246777  0.46730281    -0.78800
O344        O  0.78842430  0.77262835  0.48801124    -0.66400
Ni345      Ni  0.85964618  0.78631026  0.62889798     1.34900
C346        C  0.79183843  0.79286144  0.51305563     0.84700
O347        O  0.87220749  0.76068078  0.54384454    -0.79300
O348        O  0.89325223  0.79492164  0.59347697    -0.89600
C349        C  0.81356839  0.71428732  0.47590452     0.84300
O350        O  0.85326069  0.74741222  0.64205335    -0.67800
O351        O  0.73733918  0.72777433  0.52306196    -0.87100
C352        C  0.83741535  0.72202107  0.62547237     0.85100
C353        C  0.89493641  0.78165358  0.56127075     1.06700
H354        H  0.77898216  0.71278222  0.55979653     0.38500
O355        O  0.78940663  0.73259770  0.54826850    -1.09700
O356        O  0.79213660  0.78963542  0.55202769    -0.66400
Ni357      Ni  0.79108935  0.75948113  0.58867131     1.26300
O358        O  0.82560191  0.71883518  0.59020649    -0.66600
O359        O  0.74810482  0.74063753  0.58995756    -0.78900
C360        C  0.80762995  0.78492132  0.66738306     0.84500
O361        O  0.79446071  0.78473974  0.63414203    -0.66100
Ni362      Ni  0.77185892  0.73087089  0.49652744     1.27400
Ni363      Ni  0.83068562  0.74622061  0.54680805     1.26100
H364        H  0.84124954  0.79451591  0.56664654     0.39100
O365        O  0.77440312  0.83491515  0.82867912    -0.80900
O366        O  0.70954467  0.82852125  0.98808506    -0.65600
O367        O  0.77043242  0.83835616  0.91410907    -1.12200
C368        C  0.72244201  0.73329103  0.93181389     1.06000
O369        O  0.72627677  0.80686796  0.02901636    -0.78800
O370        O  0.76502296  0.78980617  0.00650456    -0.66400
Ni371      Ni  0.78009256  0.86503497  0.86851968     1.34900
C372        C  0.78590050  0.79476477  0.98186243     0.84700
O373        O  0.75536536  0.87656101  0.95657061    -0.79300
O374        O  0.78729976  0.89811631  0.90444657    -0.89600
C375        C  0.70863936  0.81652810  0.02219734     0.84300
O376        O  0.74112161  0.85782611  0.85515329    -0.67800
O377        O  0.71991019  0.74034338  0.96874665    -0.87100
C378        C  0.71601434  0.84282867  0.87258837     0.85100
C379        C  0.77497854  0.89950287  0.93783330     1.06700
H380        H  0.70668110  0.78361726  0.93481166     0.38500
O381        O  0.72626757  0.79348184  0.94682137    -1.09700
O382        O  0.78336705  0.79622506  0.94296171    -0.66400
Ni383      Ni  0.75347490  0.79578484  0.90640548     1.26300
O384        O  0.71320281  0.83146338  0.90815805    -0.66600
O385        O  0.73449516  0.75261935  0.90277379    -0.78900
C386        C  0.77974564  0.81344336  0.82861164     0.84500
O387        O  0.77922199  0.79988249  0.86154949    -0.66100
Ni388      Ni  0.72370882  0.77436488  0.99747293     1.27400
Ni389      Ni  0.74031449  0.83487282  0.95091864     1.26100
H390        H  0.78846478  0.84575474  0.92993137     0.39100
O391        O  0.55577439  0.72881966  0.33776469    -0.80900
O392        O  0.61729865  0.78376740  0.17777830    -0.65600
O393        O  0.55700604  0.73259565  0.25197261    -1.12200
C394        C  0.60445053  0.67520179  0.23720129     1.06000
O395        O  0.60328359  0.74493684  0.13754137    -0.78800
O396        O  0.56321892  0.69021070  0.16115630    -0.66400
Ni397      Ni  0.54622866  0.74936583  0.29646204     1.34900
C398        C  0.54232471  0.67458712  0.18586843     0.84700
O399        O  0.57031220  0.78479144  0.20894340    -0.79300
O400        O  0.53576126  0.77127348  0.25844068    -0.89600
C401        C  0.61986298  0.77252012  0.14464795     0.84300
O402        O  0.58375726  0.78438405  0.30712502    -0.67800
O403        O  0.60682727  0.68380769  0.19981937    -0.87100
C404        C  0.60921305  0.79406056  0.29112142     0.85100
C405        C  0.54889656  0.78600785  0.22606065     1.06700
H406        H  0.62126477  0.74300928  0.23198091     0.38500
O407        O  0.60168883  0.73256675  0.22003439    -1.09700
O408        O  0.54510742  0.67806421  0.22490451    -0.66400
Ni409      Ni  0.57478870  0.70818061  0.26108262     1.26300
O410        O  0.61294664  0.78361729  0.25764854    -0.66600
O411        O  0.59386437  0.68431763  0.26598198    -0.78900
C412        C  0.55048988  0.70206724  0.33942131     0.84500
O413        O  0.54963488  0.68775872  0.30693365    -0.66100
Ni414      Ni  0.60455506  0.71487053  0.17036188     1.27400
Ni415      Ni  0.58656374  0.75909238  0.21489666     1.26100
H416        H  0.53910642  0.72127999  0.23614285     0.39100
O417        O  0.50127126  0.61600354  0.49897003    -0.80900
O418        O  0.50776397  0.56343157  0.66320925    -0.65600
O419        O  0.49816594  0.61172005  0.58500089    -1.12200
C420        C  0.60361981  0.66986831  0.59836681     1.06000
O421        O  0.53258515  0.60399774  0.69993007    -0.78800
O422        O  0.55108885  0.65891521  0.67448110    -0.66400
Ni423      Ni  0.47130295  0.59357643  0.54023527     1.34900
C424        C  0.54277796  0.67239076  0.65027191     0.84700
O425        O  0.46015050  0.56053655  0.63108741    -0.79300
O426        O  0.43869760  0.56965686  0.57777316    -0.89600
C427        C  0.52203501  0.57630214  0.69521741     0.84300
O428        O  0.47777747  0.56102149  0.53011976    -0.67800
O429        O  0.59859145  0.66057512  0.63552197    -0.87100
C430        C  0.49270686  0.55112977  0.54811336     0.85100
C431        C  0.43728327  0.55702247  0.61221121     1.06700
H432        H  0.55252887  0.60301677  0.60560885     0.38500
O433        O  0.54340357  0.61343799  0.61768324    -1.09700
O434        O  0.53934754  0.66696837  0.61172416    -0.66400
Ni435      Ni  0.54029420  0.63718504  0.57626531     1.26300
O436        O  0.50421512  0.56032856  0.58347589    -0.66600
O437        O  0.58310934  0.66188750  0.57104557    -0.78900
C438        C  0.52230280  0.64306555  0.49810131     0.84500
O439        O  0.53517257  0.65725428  0.53076648    -0.66100
Ni440      Ni  0.56488092  0.63179894  0.66649589     1.27400
Ni441      Ni  0.50175207  0.58645832  0.62387661     1.26100
H442        H  0.49086854  0.62285569  0.59986854     0.39100
O443        O  0.60392937  0.50517062  0.00548943    -0.80900
O444        O  0.54847884  0.50994748  0.84380402    -0.65600
O445        O  0.59828248  0.50007200  0.91991313    -1.12200
C446        C  0.65624154  0.60539395  0.90310878     1.06000
O447        O  0.58913154  0.52993054  0.80824013    -0.78800
O448        O  0.64532140  0.55281393  0.82794698    -0.66400
Ni449      Ni  0.58118708  0.47396071  0.96558898     1.34900
C450        C  0.65905476  0.54452314  0.85146582     0.84700
O451        O  0.54551263  0.46210642  0.87768708    -0.79300
O452        O  0.55746051  0.44079346  0.92852221    -0.89600
C453        C  0.56200528  0.52226393  0.81094244     0.84300
O454        O  0.54791899  0.47921068  0.97659293    -0.67800
O455        O  0.64537064  0.59964583  0.86661007    -0.87100
C456        C  0.53859806  0.49503888  0.95983179     0.85100
C457        C  0.54361108  0.43934406  0.89520659     1.06700
H458        H  0.59058766  0.55516174  0.89980056     0.38500
O459        O  0.60014790  0.54520223  0.88735831    -1.09700
O460        O  0.65346038  0.54040256  0.89006360    -0.66400
Ni461      Ni  0.62468911  0.54226526  0.92716266     1.26300
O462        O  0.54821252  0.50751753  0.92504276    -0.66600
O463        O  0.64992587  0.58529388  0.93075285    -0.78900
C464        C  0.63140455  0.52513466  0.00516085     0.84500
O465        O  0.64532844  0.53720238  0.97199759    -0.66100
Ni466      Ni  0.61689067  0.56470402  0.83740015     1.27400
Ni467      Ni  0.57218009  0.50370664  0.88279705     1.26100
H468        H  0.60862614  0.49223877  0.90430224     0.39100
O469        O  0.46155866  0.41641205  0.30139708    -0.80900
O470        O  0.45927193  0.35383751  0.46662692    -0.65600
O471        O  0.45225022  0.40202850  0.38468122    -1.12200
C472        C  0.55843209  0.45434846  0.38911947     1.06000
O473        O  0.49381626  0.39399375  0.49939336    -0.78800
O474        O  0.52046007  0.45045192  0.47253636    -0.66400
Ni475      Ni  0.43099151  0.38555995  0.33509757     1.34900
C476        C  0.50574547  0.46136044  0.45658493     0.84700
O477        O  0.41191194  0.35285471  0.43038041    -0.79300
O478        O  0.39827145  0.35399200  0.36506832    -0.89600
C479        C  0.47268718  0.36698585  0.49954382     0.84300
O480        O  0.44720656  0.36078302  0.32265986    -0.67800
O481        O  0.55675650  0.43984252  0.42174575    -0.87100
C482        C  0.45157133  0.34385011  0.34599855     0.85100
C483        C  0.39208206  0.34441071  0.40215204     1.06700
H484        H  0.50313696  0.38928011  0.39757762     0.38500
O485        O  0.49673449  0.40046486  0.41413444    -1.09700
O486        O  0.49274289  0.45251004  0.42212602    -0.66400
Ni487      Ni  0.49393693  0.42789995  0.37875933     1.26300
O488        O  0.45285437  0.34677949  0.38513494    -0.66600
O489        O  0.53580812  0.45294106  0.37194495    -0.78900
C490        C  0.47484386  0.44399511  0.31013961     0.84500
O491        O  0.48869083  0.45361774  0.34349508    -0.66100
Ni492      Ni  0.52406128  0.41636545  0.45894761     1.27400
Ni493      Ni  0.45462544  0.37625344  0.42374840     1.26100
H494        H  0.44354177  0.41248454  0.39796146     0.39100
O495        O  0.40012368  0.47560629  0.19932681    -0.80900
O496        O  0.34523246  0.47328684  0.02839162    -0.65600
O497        O  0.38824994  0.46357013  0.11545064    -1.12200
C498        C  0.44630410  0.56897171  0.11213422     1.06000
O499        O  0.38630980  0.50860229  0.99783301    -0.78800
O500        O  0.44173904  0.53127827  0.02824496    -0.66400
Ni501      Ni  0.36999731  0.44461114  0.16545878     1.34900
C502        C  0.45048654  0.51469535  0.04424988     0.84700
O503        O  0.34046545  0.42471911  0.06855338    -0.79300
O504        O  0.33915006  0.41188382  0.13522420    -0.89600
C505        C  0.35919840  0.48773628  0.99638953     0.84300
O506        O  0.34640031  0.46265247  0.17299085    -0.67800
O507        O  0.43281881  0.56892549  0.07920228    -0.87100
C508        C  0.33057907  0.46705054  0.14761943     0.85100
C509        C  0.33115295  0.40528459  0.09762229     1.06700
H510        H  0.37988351  0.51658413  0.09974535     0.38500
O511        O  0.39070298  0.50944426  0.08375049    -1.09700
O512        O  0.44010671  0.50121150  0.07826654    -0.66400
Ni513      Ni  0.41602609  0.50444794  0.12084499     1.26300
O514        O  0.33456427  0.46748091  0.10881769    -0.66600
O515        O  0.44335712  0.54544202  0.12801134    -0.78900
C516        C  0.42780552  0.48676932  0.19342726     0.84500
O517        O  0.43893806  0.49705983  0.15861276    -0.66100
Ni518      Ni  0.40902005  0.53743894  0.04013941     1.27400
Ni519      Ni  0.36501313  0.46745960  0.07393406     1.26100
H520        H  0.39779511  0.45335022  0.10403999     0.39100
O521        O  0.19242071  0.27665133  0.53183325    -0.80900
O522        O  0.19828661  0.22106343  0.36453963    -0.65600
O523        O  0.20478169  0.27477505  0.44920714    -1.12200
C524        C  0.09894784  0.22300809  0.44092575     1.06000
O525        O  0.16435583  0.22733383  0.33156711    -0.78800
O526        O  0.13870187  0.25803559  0.35830231    -0.66400
Ni527      Ni  0.22440723  0.27804988  0.49984244     1.34900
C528        C  0.15425118  0.28360817  0.37451904     0.84700
O529        O  0.24521273  0.26607298  0.40512351    -0.79300
O530        O  0.25820550  0.28083284  0.47092333    -0.89600
C531        C  0.18526045  0.22123888  0.33140275     0.84300
O532        O  0.20814214  0.23658572  0.51007363    -0.67800
O533        O  0.10060682  0.21028992  0.40806651    -0.87100
C534        C  0.20260855  0.21530549  0.48578154     0.85100
C535        C  0.26474317  0.27792320  0.43376752     1.06700
H536        H  0.15297252  0.21208375  0.43295759     0.38500
O537        O  0.16023386  0.23004372  0.41680928    -1.09700
O538        O  0.16661364  0.28705577  0.40950036    -0.66400
Ni539      Ni  0.16330467  0.26019517  0.45292388     1.26300
O540        O  0.20188237  0.21778186  0.44670958    -0.66600
O541        O  0.12159427  0.24448977  0.45789066    -0.78900
C542        C  0.18159830  0.29319756  0.52372303     0.84500
O543        O  0.16903534  0.29093732  0.48964790    -0.66100
Ni544      Ni  0.13369509  0.21959585  0.37131739     1.27400
Ni545      Ni  0.20245516  0.24720581  0.40913583     1.26100
H546        H  0.21449419  0.29442123  0.43677442     0.39100
O547        O  0.25926999  0.40310867  0.63416464    -0.80900
O548        O  0.31611801  0.45629636  0.80249982    -0.65600
O549        O  0.27011379  0.40236014  0.71725544    -1.12200
C550        C  0.21290085  0.45092578  0.72795556     1.06000
O551        O  0.27488122  0.44688172  0.83531163    -0.78800
O552        O  0.21909882  0.41512844  0.80720562    -0.66400
Ni553      Ni  0.28723124  0.39859008  0.66758889     1.34900
C554        C  0.20861380  0.39021056  0.78891142     0.84700
O555        O  0.31911920  0.41161380  0.76241243    -0.79300
O556        O  0.31604034  0.39341189  0.69810995    -0.89600
C557        C  0.30264385  0.45603143  0.83540156     0.84300
O558        O  0.31504666  0.43940281  0.65824584    -0.67800
O559        O  0.22645161  0.46282461  0.76155032    -0.87100
C560        C  0.32903042  0.46135568  0.68219406     0.85100
C561        C  0.32594478  0.39816141  0.73503383     1.06700
H562        H  0.27942628  0.46447896  0.73552066     0.38500
O563        O  0.26877114  0.44604279  0.75053107    -1.09700
O564        O  0.21761042  0.38781965  0.75341557    -0.66400
Ni565      Ni  0.24293532  0.41659570  0.71257398     1.26300
O566        O  0.32354583  0.45987397  0.72076618    -0.66600
O567        O  0.21656428  0.43185214  0.70805447    -0.78900
C568        C  0.23143017  0.38687900  0.63902496     0.84500
O569        O  0.21963470  0.38731712  0.67288099    -0.66100
Ni570      Ni  0.25141478  0.45438439  0.79663231     1.27400
Ni571      Ni  0.29465984  0.42985504  0.75793162     1.26100
H572        H  0.26008401  0.38287057  0.72973877     0.39100
O573        O  0.27081411  0.20763530  0.96676735    -0.80900
O574        O  0.21549302  0.20999702  0.13637869    -0.65600
O575        O  0.26948315  0.21859117  0.05073340    -1.12200
C576        C  0.22032280  0.11260093  0.05870759     1.06000
O577        O  0.22421116  0.17733798  0.16843181    -0.78800
O578        O  0.25501454  0.15247211  0.13928718    -0.66400
Ni579      Ni  0.27283433  0.23902073  0.00088995     1.34900
C580        C  0.28020747  0.16752090  0.12206772     0.84700
O581        O  0.25944055  0.25814991  0.09626949    -0.79300
O582        O  0.27579740  0.27210827  0.03132252    -0.89600
C583        C  0.21632923  0.19695555  0.16921079     0.84300
O584        O  0.23173971  0.22375196  0.99101639    -0.67800
O585        O  0.20762636  0.11388081  0.09173319    -0.87100
C586        C  0.21011979  0.21710403  0.01501030     0.85100
C587        C  0.27148084  0.27802881  0.06805849     1.06700
H588        H  0.20750579  0.16569210  0.06744976     0.38500
O589        O  0.22565771  0.17327626  0.08302854    -1.09700
O590        O  0.28338581  0.18021644  0.08741214    -0.66400
Ni591      Ni  0.25549677  0.17720642  0.04568945     1.26300
O592        O  0.21191144  0.21450729  0.05395519    -0.66600
O593        O  0.24033678  0.13554076  0.04023385    -0.78900
C594        C  0.28653474  0.19564952  0.97293827     0.84500
O595        O  0.28547582  0.18359287  0.00714550    -0.66100
Ni596      Ni  0.21637853  0.14677940  0.12835217     1.27400
Ni597      Ni  0.24172740  0.21536896  0.09131744     1.26100
H598        H  0.28891209  0.22822937  0.06322412     0.39100
O599        O  0.39505675  0.26293444  0.86120085    -0.80900
O600        O  0.44289232  0.32367925  0.69307753    -0.65600
O601        O  0.39224380  0.27601789  0.77968016    -1.12200
C602        C  0.44328648  0.22149620  0.76565487     1.06000
O603        O  0.43734094  0.28365554  0.65947686    -0.78800
O604        O  0.40690271  0.22718628  0.68580368    -0.66400
Ni605      Ni  0.38969723  0.29179692  0.83106125     1.34900
C606        C  0.38191028  0.21687322  0.70357127     0.84700
O607        O  0.39870023  0.32535109  0.73752822    -0.79300
O608        O  0.38342606  0.32096203  0.80361459    -0.89600
C609        C  0.44295826  0.31058491  0.65986057     0.84300
O610        O  0.43070383  0.31938347  0.83821025    -0.67800
O611        O  0.45507273  0.23572466  0.73238945    -0.87100
C612        C  0.45162665  0.33513011  0.81350407     0.85100
C613        C  0.38571196  0.33109392  0.76708176     1.06700
H614        H  0.45441739  0.28766067  0.75940472     0.38500
O615        O  0.43610210  0.27668739  0.74418360    -1.09700
O616        O  0.37928314  0.22539335  0.73935120    -0.66400
Ni617      Ni  0.40723902  0.24939773  0.78162519     1.26300
O618        O  0.44898468  0.33121656  0.77460132    -0.66600
O619        O  0.42314818  0.22352349  0.78489982    -0.78900
C620        C  0.37780845  0.23538406  0.85471138     0.84500
O621        O  0.37799253  0.22440108  0.82011213    -0.66100
Ni622      Ni  0.44554757  0.26035202  0.69771126     1.27400
Ni623      Ni  0.41834452  0.30165785  0.73872032     1.26100
H624        H  0.37250101  0.26583379  0.76826130     0.39100
O625        O  0.52744065  0.94056502  0.20331461    -0.80900
O626        O  0.53588803  0.89183657  0.03152639    -0.65600
O627        O  0.54332911  0.94281883  0.12075075    -1.12200
C628        C  0.43845116  0.89623344  0.10854628     1.06000
O629        O  0.50430357  0.90232366  0.99949542    -0.78800
O630        O  0.47882691  0.93260447  0.03030585    -0.66400
Ni631      Ni  0.55977559  0.94184011  0.17229006     1.34900
C632        C  0.49509915  0.95776378  0.04738422     0.84700
O633        O  0.58335481  0.93337026  0.07764018    -0.79300
O634        O  0.59375954  0.94419113  0.14510090    -0.89600
C635        C  0.52295681  0.89319201  0.99887326     0.84300
O636        O  0.54115591  0.89978875  0.17730011    -0.67800
O637        O  0.43977860  0.88333312  0.07564073    -0.87100
C638        C  0.53685423  0.87980181  0.15126627     0.85100
C639        C  0.60164319  0.94286539  0.10821831     1.06700
H640        H  0.49025835  0.88260886  0.09943743     0.38500
O641        O  0.49862776  0.90113721  0.08441308    -1.09700
O642        O  0.50846072  0.96016281  0.08121868    -0.66400
Ni643      Ni  0.50245064  0.93054423  0.12227631     1.26300
O644        O  0.53755946  0.88420093  0.11257372    -0.66600
O645        O  0.46127704  0.91726055  0.12550222    -0.78900
C646        C  0.51753220  0.95806743  0.19641233     0.84500
O647        O  0.50851674  0.95962805  0.16109267    -0.66100
Ni648      Ni  0.47301672  0.89339130  0.03883534     1.27400
Ni649      Ni  0.54063877  0.91643095  0.07849731     1.26100
H650        H  0.55446055  0.96295105  0.11041674     0.39100
O651        O  0.58571377  0.06626658  0.30529601    -0.80900
O652        O  0.64399909  0.11554591  0.47525583    -0.65600
O653        O  0.59881709  0.06500248  0.38708340    -1.12200
C654        C  0.54469007  0.11689136  0.39789961     1.06000
O655        O  0.60302179  0.10887814  0.50697025    -0.78800
O656        O  0.54756449  0.08056107  0.47712698    -0.66400
Ni657      Ni  0.61567717  0.06317853  0.33623928     1.34900
C658        C  0.53828452  0.05512986  0.46085477     0.84700
O659        O  0.64705421  0.07159645  0.43114582    -0.79300
O660        O  0.64617022  0.05904711  0.36428698    -0.89600
C661        C  0.63018300  0.11566602  0.50777002     0.84300
O662        O  0.64164870  0.10477345  0.32916928    -0.67800
O663        O  0.55949731  0.12981067  0.43034924    -0.87100
C664        C  0.65827212  0.12439299  0.35500570     0.85100
C665        C  0.65550155  0.06107487  0.40129651     1.06700
H666        H  0.61015020  0.12725593  0.40628420     0.38500
O667        O  0.59889062  0.10903206  0.42171585    -1.09700
O668        O  0.54824793  0.05195886  0.42664950    -0.66400
Ni669      Ni  0.57208805  0.07990248  0.38449022     1.26300
O670        O  0.65391920  0.12111541  0.39378941    -0.66600
O671        O  0.54590503  0.09551713  0.38070853    -0.78900
C672        C  0.55823768  0.04931497  0.31266615     0.84500
O673        O  0.54743459  0.05032952  0.34687047    -0.66100
Ni674      Ni  0.58193236  0.11879537  0.46705834     1.27400
Ni675      Ni  0.62333775  0.09099088  0.42881587     1.26100
H676        H  0.58861483  0.04506387  0.39816078     0.39100
O677        O  0.79871732  0.07598295  0.97242920    -0.80900
O678        O  0.79582369  0.01792981  0.14088141    -0.65600
O679        O  0.78741758  0.06328946  0.05555193    -1.12200
C680        C  0.89343633  0.11938893  0.06167386     1.06000
O681        O  0.82916181  0.05939039  0.17322715    -0.78800
O682        O  0.85519436  0.11533582  0.14388179    -0.66400
Ni683      Ni  0.76679958  0.04656236  0.00573354     1.34900
C684        C  0.83936546  0.12488008  0.12783662     0.84700
O685        O  0.74779352  0.01345321  0.10012459    -0.79300
O686        O  0.73329382  0.01640750  0.03565606    -0.89600
C687        C  0.80858553  0.03210380  0.17375388     0.84300
O688        O  0.78129381  0.02013886  0.99587097    -0.67800
O689        O  0.89229413  0.10511384  0.09443954    -0.87100
C690        C  0.78798954  0.00488568  0.01928161     0.85100
C691        C  0.72773771  0.00581631  0.07217184     1.06700
H692        H  0.83993443  0.05385056  0.07125370     0.38500
O693        O  0.83261412  0.06451169  0.08728063    -1.09700
O694        O  0.82603181  0.11498727  0.09358824    -0.66400
Ni695      Ni  0.82877859  0.09077655  0.05057586     1.26300
O696        O  0.79120363  0.00929234  0.05819518    -0.66600
O697        O  0.87040367  0.11732774  0.04486715    -0.78900
C698        C  0.80978578  0.10367514  0.97880819     0.84500
O699        O  0.82226029  0.11488385  0.01280427    -0.66100
Ni700      Ni  0.85961009  0.08158923  0.13225219     1.27400
Ni701      Ni  0.79054680  0.03855407  0.09561951     1.26100
H702        H  0.77793814  0.07314929  0.06839618     0.39100
O703        O  0.73432842  0.13688667  0.86825786    -0.80900
O704        O  0.67800412  0.13537893  0.69764462    -0.65600
O705        O  0.72202632  0.12612005  0.78421973    -1.12200
C706        C  0.77801734  0.23219204  0.77934248     1.06000
O707        O  0.71922919  0.16935537  0.66624594    -0.78800
O708        O  0.77476747  0.19375424  0.69600812    -0.66400
Ni709      Ni  0.70401571  0.10605044  0.83414389     1.34900
C710        C  0.78395560  0.17763019  0.71228330     0.84700
O711        O  0.67324999  0.08665262  0.73789306    -0.79300
O712        O  0.67298029  0.07305561  0.80384154    -0.89600
C713        C  0.69185394  0.14936572  0.66515449     0.84300
O714        O  0.67992727  0.12351962  0.84331871    -0.67800
O715        O  0.76469800  0.23118828  0.74581206    -0.87100
C716        C  0.66488157  0.12946580  0.81852215     0.85100
C717        C  0.66426923  0.06680501  0.76645114     1.06700
H718        H  0.71305225  0.17899377  0.76794997     0.38500
O719        O  0.72385309  0.17168788  0.75215972    -1.09700
O720        O  0.77405253  0.16469745  0.74683625    -0.66400
Ni721      Ni  0.74951038  0.16749977  0.78951063     1.26300
O722        O  0.66866220  0.13029436  0.77951669    -0.66600
O723        O  0.77592687  0.20921012  0.79641706    -0.78900
C724        C  0.76195641  0.14822098  0.86147672     0.84500
O725        O  0.77300716  0.16062633  0.82743947    -0.66100
Ni726      Ni  0.74147926  0.19903037  0.70763711     1.27400
Ni727      Ni  0.69814383  0.12961111  0.74310908     1.26100
H728        H  0.73187536  0.11630629  0.77220916     0.39100
O729        O  0.72070768  0.92660999  0.53331615    -0.80900
O730        O  0.77787699  0.98859817  0.36666531    -0.65600
O731        O  0.72334611  0.94137704  0.45098124    -1.12200
C732        C  0.77434435  0.88630286  0.44505260     1.06000
O733        O  0.77294527  0.94818730  0.33490919    -0.78800
O734        O  0.74128901  0.89203317  0.36142399    -0.66400
Ni735      Ni  0.71918544  0.95714128  0.50158973     1.34900
C736        C  0.71562912  0.88264537  0.37664377     0.84700
O737        O  0.73262915  0.99140202  0.40791689    -0.79300
O738        O  0.71634790  0.98814312  0.47322768    -0.89600
C739        C  0.78008514  0.97551050  0.33445980     0.84300
O740        O  0.76025133  0.98277154  0.51245595    -0.67800
O741        O  0.78765425  0.90100234  0.41274302    -0.87100
C742        C  0.78193603  0.99855601  0.48887375     0.85100
C743        C  0.72028471  0.99866553  0.43672777     1.06700
H744        H  0.78592359  0.95225223  0.43655868     0.38500
O745        O  0.76830702  0.94155518  0.41993669    -1.09700
O746        O  0.71181665  0.89136853  0.41146503    -0.66400
Ni747      Ni  0.73778733  0.91436568  0.45543896     1.26300
O748        O  0.78026243  0.99548916  0.44972480    -0.66600
O749        O  0.75306309  0.88787610  0.46162489    -0.78900
C750        C  0.70451212  0.89912484  0.52499454     0.84500
O751        O  0.70649129  0.88906360  0.49064475    -0.66100
Ni752      Ni  0.77951230  0.92517043  0.37545417     1.27400
Ni753      Ni  0.75126657  0.96684465  0.41147194     1.26100
H754        H  0.70404114  0.93149269  0.43814326     0.39100
O755        O  0.60025228  0.86473269  0.63694461    -0.80900
O756        O  0.54733802  0.87473525  0.80431030    -0.65600
O757        O  0.59921813  0.87972335  0.71838231    -1.12200
C758        C  0.54900174  0.77406639  0.73057167     1.06000
O759        O  0.55398452  0.84098014  0.83742301    -0.78800
O760        O  0.58344529  0.81374535  0.81052783    -0.66400
Ni761      Ni  0.60013097  0.89688907  0.66668556     1.34900
C762        C  0.60891087  0.82970462  0.79443322     0.84700
O763        O  0.59145006  0.92101008  0.76058450    -0.79300
O764        O  0.60159331  0.93096867  0.69309605    -0.89600
C765        C  0.54752346  0.86169983  0.83748489     0.84300
O766        O  0.55824110  0.87803475  0.65846552    -0.67800
O767        O  0.53546695  0.77577631  0.76245501    -0.87100
C768        C  0.53825309  0.87524931  0.68336290     0.85100
C769        C  0.60125823  0.93931392  0.73009263     1.06700
H770        H  0.53735486  0.82800127  0.73642459     0.38500
O771        O  0.55524410  0.83554140  0.75251880    -1.09700
O772        O  0.61233270  0.84316747  0.76045581    -0.66400
Ni773      Ni  0.58536482  0.83836755  0.71688944     1.26300
O774        O  0.54225759  0.87697362  0.72231326    -0.66600
O775        O  0.57056551  0.79669057  0.71383933    -0.78900
C776        C  0.61724447  0.85453893  0.64591898     0.84500
O777        O  0.61615790  0.84381531  0.68102167    -0.66100
Ni778      Ni  0.54528492  0.80945783  0.79851168     1.27400
Ni779      Ni  0.57242622  0.87804865  0.75885534     1.26100
H780        H  0.61905097  0.89020324  0.72962988     0.39100
O781        O  0.16128026  0.95175171  0.83360598    -0.80900
O782        O  0.17665033  0.89723785  0.99173964    -0.65600
O783        O  0.16275537  0.94639851  0.91918957    -1.12200
C784        C  0.26785885  0.00628104  0.92586346     1.06000
O785        O  0.20049951  0.93736751  0.02912555    -0.78800
O786        O  0.21573803  0.99221462  0.00567165    -0.66400
Ni787      Ni  0.13365467  0.92864942  0.87679749     1.34900
C788        C  0.20909503  0.00721136  0.98176651     0.84700
O789        O  0.12677430  0.89399221  0.96573475    -0.79300
O790        O  0.10315793  0.90419329  0.91647071    -0.89600
C791        C  0.19053087  0.90969620  0.02435255     0.84300
O792        O  0.13927978  0.89595076  0.86226464    -0.67800
O793        O  0.26316110  0.99686835  0.96300387    -0.87100
C794        C  0.15517288  0.88612033  0.87739448     0.85100
C795        C  0.10310208  0.89061665  0.94935054     1.06700
H796        H  0.21848208  0.93817682  0.93318421     0.38500
O797        O  0.20928664  0.94820421  0.94637667    -1.09700
O798        O  0.20562461  0.00222859  0.94320751    -0.66400
Ni799      Ni  0.20451525  0.97207093  0.90673386     1.26300
O800        O  0.16877124  0.89555125  0.91161845    -0.66600
O801        O  0.24719795  0.99713101  0.89852712    -0.78900
C802        C  0.18278914  0.97858162  0.83157466     0.84500
O803        O  0.19759911  0.99248115  0.86326328    -0.66100
Ni804      Ni  0.23112676  0.96660553  0.99471073     1.27400
Ni805      Ni  0.16818541  0.92063168  0.95524759     1.26100
H806        H  0.15631521  0.95742096  0.93604618     0.39100
O807        O  0.27876515  0.84044522  0.33567611    -0.80900
O808        O  0.22137364  0.84485236  0.17384464    -0.65600
O809        O  0.27173601  0.83619769  0.25045357    -1.12200
C810        C  0.32734686  0.94220455  0.23518059     1.06000
O811        O  0.26110172  0.86910655  0.13604042    -0.78800
O812        O  0.31683280  0.88973530  0.15821399    -0.66400
Ni813      Ni  0.25442791  0.81002030  0.29640440     1.34900
C814        C  0.33110093  0.88213007  0.18187158     0.84700
O815        O  0.21949005  0.79720592  0.20683687    -0.79300
O816        O  0.22836952  0.77654226  0.26144098    -0.89600
C817        C  0.23374897  0.85932238  0.14163246     0.84300
O818        O  0.22303123  0.81788497  0.30849502    -0.67800
O819        O  0.31714305  0.93629026  0.19848457    -0.87100
C820        C  0.21210263  0.83160901  0.28969213     0.85100
C821        C  0.21523657  0.77454733  0.22736951     1.06700
H822        H  0.26187445  0.89000296  0.23049801     0.38500
O823        O  0.27217648  0.88092919  0.21781811    -1.09700
O824        O  0.32609877  0.87834861  0.22058450    -0.66400
Ni825      Ni  0.29717128  0.87880726  0.25820077     1.26300
O826        O  0.22017540  0.84185810  0.25355664    -0.66600
O827        O  0.32121365  0.92203498  0.26262097    -0.78900
C828        C  0.30582670  0.86136314  0.33588814     0.84500
O829        O  0.31911029  0.87476499  0.30291227    -0.66100
Ni830      Ni  0.28881991  0.90208910  0.16823071     1.27400
Ni831      Ni  0.24543984  0.83912824  0.21246556     1.26100
H832        H  0.28266175  0.82878628  0.23533590     0.39100
O833        O  0.38546987  0.89461263  0.50172336    -0.80900
O834        O  0.43810692  0.95359374  0.66630232    -0.65600
O835        O  0.38878486  0.89599364  0.58782724    -1.12200
C836        C  0.33338153  0.94527771  0.60190176     1.06000
O837        O  0.39909800  0.93993310  0.70575089    -0.78800
O838        O  0.34485817  0.90091428  0.67709757    -0.66400
Ni839      Ni  0.40691226  0.88664944  0.54352743     1.34900
C840        C  0.32893812  0.88082381  0.65134242     0.84700
O841        O  0.43952699  0.90789122  0.63459964    -0.79300
O842        O  0.42987816  0.87714604  0.58125868    -0.89600
C843        C  0.42694702  0.95521473  0.69992471     0.84300
O844        O  0.44000763  0.92566002  0.53361081    -0.67800
O845        O  0.34124096  0.94638711  0.63947434    -0.87100
C846        C  0.45008885  0.95063634  0.55164807     0.85100
C847        C  0.44253993  0.88817409  0.61569076     1.06700
H848        H  0.39979549  0.96031237  0.61019609     0.38500
O849        O  0.38884154  0.94038877  0.62120549    -1.09700
O850        O  0.33342081  0.88427965  0.61255664    -0.66400
Ni851      Ni  0.36499185  0.91446525  0.57835304     1.26300
O852        O  0.44096530  0.95301085  0.58699007    -0.66600
O853        O  0.34217330  0.93457953  0.57293692    -0.78900
C854        C  0.35877749  0.88927481  0.49961340     0.84500
O855        O  0.34474721  0.88993605  0.53149163    -0.66100
Ni856      Ni  0.37052863  0.94251152  0.67056534     1.27400
Ni857      Ni  0.41451137  0.92458180  0.62714056     1.26100
H858        H  0.37685813  0.87756835  0.60246589     0.39100
O859        O  0.49609735  0.11843112  0.00200562    -0.80900
O860        O  0.48715482  0.05190110  0.84663720    -0.65600
O861        O  0.49872501  0.11483175  0.91695020    -1.12200
C862        C  0.39492974  0.07163148  0.89911727     1.06000
O863        O  0.46531248  0.06686702  0.80285344    -0.78800
O864        O  0.45355786  0.10972917  0.82473826    -0.66400
Ni865      Ni  0.52599461  0.12528628  0.96140173     1.34900
C866        C  0.45780757  0.13111119  0.84805165     0.84700
O867        O  0.53559814  0.09762414  0.87629822    -0.79300
O868        O  0.55819785  0.13352063  0.92345679    -0.89600
C869        C  0.47567749  0.05008535  0.81189434     0.84300
O870        O  0.52095828  0.08678869  0.97451708    -0.67800
O871        O  0.40213839  0.06834955  0.86263408    -0.87100
C872        C  0.50459223  0.06092784  0.95942779     0.85100
C873        C  0.55884524  0.11933118  0.89156677     1.06700
H874        H  0.44280155  0.05124178  0.89848995     0.38500
O875        O  0.45316013  0.07066861  0.88587967    -1.09700
O876        O  0.45795079  0.12915526  0.88729231    -0.66400
Ni877      Ni  0.45670293  0.09934011  0.92528463     1.26300
O878        O  0.49038884  0.05695755  0.92598081    -0.66600
O879        O  0.41376083  0.08211334  0.92898689    -0.78900
C880        C  0.47608487  0.12579584  0.00276347     0.84500
O881        O  0.46256725  0.12613175  0.97007006    -0.66100
Ni882      Ni  0.43462686  0.06819698  0.83479141     1.27400
Ni883      Ni  0.49421780  0.08359393  0.88194889     1.26100
H884        H  0.50630466  0.13248499  0.90014100     0.39100
O885        O  0.21750131  0.05958135  0.66849302    -0.80900
O886        O  0.27974253  0.11612944  0.50787125    -0.65600
O887        O  0.22045513  0.06507461  0.58309498    -1.12200
C888        C  0.27131861  0.01065672  0.57102552     1.06000
O889        O  0.26710924  0.07734818  0.46833462    -0.78800
O890        O  0.23007920  0.02152395  0.49309497    -0.66400
Ni891      Ni  0.21028255  0.08228815  0.62780087     1.34900
C892        C  0.20840332  0.00611713  0.51694509     0.84700
O893        O  0.23265483  0.11602006  0.53760309    -0.79300
O894        O  0.20150966  0.10611917  0.59056449    -0.89600
C895        C  0.28234032  0.10518265  0.47459594     0.84300
O896        O  0.24871123  0.11591212  0.64022226    -0.67800
O897        O  0.27554559  0.02051846  0.53411019    -0.87100
C898        C  0.27364343  0.12680707  0.62208975     0.85100
C899        C  0.21284322  0.11893811  0.55628989     1.06700
H900        H  0.28516296  0.07702069  0.56493408     0.38500
O901        O  0.26590857  0.06608882  0.55217875    -1.09700
O902        O  0.20973553  0.01076039  0.55566397    -0.66400
Ni903      Ni  0.23851514  0.04092340  0.59257982     1.26300
O904        O  0.27647862  0.11769573  0.58695006    -0.66600
O905        O  0.25818377  0.01773120  0.59859381    -0.78900
C906        C  0.21136244  0.03247869  0.66917377     0.84500
O907        O  0.21216988  0.01908000  0.63677161    -0.66100
Ni908      Ni  0.27080072  0.04926516  0.50295094     1.27400
Ni909      Ni  0.24975068  0.09149589  0.54545153     1.26100
H910        H  0.20238065  0.05348431  0.56763934     0.39100
O911        O  0.44187584  0.17306292  0.16669752    -0.80900
O912        O  0.37855112  0.16593658  0.32837871    -0.65600
O913        O  0.43793837  0.17553369  0.25223466    -1.12200
C914        C  0.38912283  0.07009859  0.26708781     1.06000
O915        O  0.39357909  0.14223021  0.36849030    -0.78800
O916        O  0.43156377  0.12468840  0.34329549    -0.66400
Ni917      Ni  0.44723515  0.20248846  0.20721367     1.34900
C918        C  0.45273997  0.13058369  0.31869385     0.84700
O919        O  0.42394794  0.21366186  0.29720804    -0.79300
O920        O  0.45408511  0.23510655  0.24342312    -0.89600
C921        C  0.37725045  0.15351528  0.36221366     0.84300
O922        O  0.40798861  0.19447744  0.19459864    -0.67800
O923        O  0.38592651  0.07640790  0.30416433    -0.87100
C924        C  0.38304291  0.18019095  0.21268767     0.85100
C925        C  0.44262941  0.23654076  0.27753085     1.06700
H926        H  0.37413714  0.12121875  0.27260090     0.38500
O927        O  0.39368987  0.13056222  0.28471285    -1.09700
O928        O  0.45058525  0.13304968  0.27988767    -0.66400
Ni929      Ni  0.42076429  0.13307043  0.24359353     1.26300
O930        O  0.38046374  0.16950124  0.24870905    -0.66600
O931        O  0.40165452  0.08997148  0.23882423    -0.78900
C932        C  0.44764887  0.15193740  0.16578041     0.84500
O933        O  0.44651342  0.13752415  0.19818422    -0.66100
Ni934      Ni  0.39039896  0.11017199  0.33463011     1.27400
Ni935      Ni  0.40837417  0.17203442  0.29018297     1.26100
H936        H  0.45614811  0.18273064  0.26756404     0.39100
C937        C  0.32474570  0.13470027  0.37621575    -0.12300
C938        C  0.35382611  0.14826964  0.39144635     0.04700
C939        C  0.35890503  0.15233864  0.43408824    -0.07500
C940        C  0.33468733  0.14065426  0.46090249    -0.08300
C941        C  0.30564730  0.12401145  0.44561798    -0.02800
C942        C  0.30057643  0.12206027  0.40295859     0.04000
N943        N  0.27121544  0.10628326  0.38632769     0.66500
H944        H  0.32071137  0.13161890  0.34342426     0.15400
H945        H  0.33869092  0.14240713  0.49382467     0.15100
N946        N  0.38830654  0.16716339  0.45063043     0.74200
O947        O  0.25953097  0.12084119  0.37300279    -0.39300
O948        O  0.26059841  0.07950373  0.37536704    -0.39200
O949        O  0.39922145  0.19352484  0.46365109    -0.39900
O950        O  0.39991233  0.15197005  0.46149598    -0.40000
C951        C  0.47368968  0.12015233  0.07917325    -0.12300
C952        C  0.46769618  0.13207239  0.04392788     0.04700
C953        C  0.45483407  0.15009916  0.04938676    -0.07500
C954        C  0.44794535  0.15538690  0.08910264    -0.08300
C955        C  0.45429750  0.14383205  0.12451108    -0.02800
C956        C  0.46749865  0.12604830  0.11901122     0.04000
N957        N  0.47684545  0.11553369  0.15321597     0.66500
H958        H  0.48381686  0.10641633  0.07599277     0.15400
H959        H  0.43815786  0.16943588  0.09206669     0.15100
N960        N  0.45055176  0.16504238  0.01549163     0.74200
O961        O  0.46047971  0.08913836  0.16545070    -0.39300
O962        O  0.50404249  0.12896234  0.16250969    -0.39200
O963        O  0.42448636  0.15784970  0.00493299    -0.39900
O964        O  0.47186542  0.18985997  0.00410182    -0.40000
C965        C  0.30636185  0.97098299  0.62657027    -0.12300
C966        C  0.31397215  0.95842794  0.59332283     0.04700
C967        C  0.30411013  0.96051576  0.55363519    -0.07500
C968        C  0.28900577  0.97628791  0.54786984    -0.08300
C969        C  0.28315888  0.99040123  0.58075656    -0.02800
C970        C  0.29122723  0.98669471  0.62076385     0.04000
N971        N  0.28569246  0.99990201  0.65577238     0.66500
H972        H  0.31290665  0.96946240  0.65770737     0.15400
H973        H  0.28235174  0.97799371  0.51685368     0.15100
N974        N  0.30893187  0.94682304  0.51862652     0.74200
O975        O  0.26250052  0.98456117  0.67680884    -0.39300
O976        O  0.30679947  0.02332318  0.67114766    -0.39200
O977        O  0.28699851  0.92408937  0.50330588    -0.39900
O978        O  0.33166120  0.96190278  0.49663383    -0.40000
C979        C  0.46514164  0.00646507  0.71514642    -0.12300
C980        C  0.44587988  0.97769876  0.72998434     0.04700
C981        C  0.44208836  0.97266880  0.77264201    -0.07500
C982        C  0.45490133  0.99693463  0.79941378    -0.08300
C983        C  0.47089904  0.02604450  0.78405077    -0.02800
C984        C  0.47742345  0.03077760  0.74179560     0.04000
N985        N  0.49561938  0.05997656  0.72527475     0.66500
H986        H  0.46871423  0.01045462  0.68238609     0.15400
H987        H  0.45020527  0.99313292  0.83200717     0.15100
N988        N  0.42481907  0.94333036  0.78914166     0.74200
O989        O  0.52224387  0.06832364  0.71616459    -0.39300
O990        O  0.48334531  0.07310296  0.70900119    -0.39200
O991        O  0.43799452  0.93046146  0.80337105    -0.39900
O992        O  0.39811370  0.93390712  0.79905079    -0.40000
C993        C  0.30221296  0.86246892  0.41209575    -0.12300
C994        C  0.32054079  0.87064816  0.37696027     0.04700
C995        C  0.35161795  0.88605500  0.38269621    -0.07500
C996        C  0.36340321  0.89257021  0.42276406    -0.08300
C997        C  0.34491156  0.88352492  0.45790781    -0.02800
C998        C  0.31390927  0.86825472  0.45197003     0.04000
N999        N  0.29377052  0.85566834  0.48567302     0.66500
H1000       H  0.27825323  0.85050366  0.40886326     0.15400
H1001       H  0.38733604  0.90418995  0.42627604     0.15100
N1002       N  0.37154891  0.89360001  0.34866184     0.74200
O1003       O  0.27993546  0.86833108  0.49814042    -0.39300
O1004       O  0.28352408  0.82849600  0.49388326    -0.39200
O1005       O  0.38723235  0.92053641  0.33816687    -0.39900
O1006       O  0.37871444  0.87498671  0.33637863    -0.40000
C1007       C  0.35821404  0.99494534  0.21175442    -0.12300
C1008       C  0.34662794  0.97463451  0.24485520     0.04700
C1009       C  0.35119010  0.98629433  0.28513400    -0.07500
C1010       C  0.36655516  0.01726459  0.29125736    -0.08300
C1011       C  0.37664698  0.03760228  0.25799593    -0.02800
C1012       C  0.37228498  0.02585484  0.21772584     0.04000
N1013       N  0.37963327  0.04447628  0.18223603     0.66500
H1014       H  0.35499703  0.98681821  0.18035389     0.15400
H1015       H  0.36924056  0.02529312  0.32265280     0.15100
N1016       N  0.33814740  0.96734281  0.32000560     0.74200
O1017       O  0.40104219  0.04819453  0.15987069    -0.39300
O1018       O  0.36017727  0.04940353  0.16717512    -0.39200
O1019       O  0.35441214  0.96265010  0.34397095    -0.39900
O1020       O  0.31279337  0.96169471  0.33211775    -0.40000
C1021       C  0.17975955  0.97468263  0.75506596    -0.12300
C1022       C  0.19131479  0.99281492  0.79025993     0.04700
C1023       C  0.21065993  0.02369835  0.78466470    -0.07500
C1024       C  0.21722497  0.03563598  0.74495726    -0.08300
C1025       C  0.20511333  0.01763186  0.70991703    -0.02800
C1026       C  0.18653483  0.98668001  0.71530274     0.04000
N1027       N  0.17344889  0.96708941  0.68109543     0.66500
H1028       H  0.16518370  0.95084559  0.75820474     0.15400
H1029       H  0.23179315  0.05947198  0.74167099     0.15100
N1030       N  0.22268103  0.04374282  0.81864476     0.74200
O1031       O  0.18606108  0.95357955  0.66707397    -0.39300
O1032       O  0.14628279  0.95701140  0.67347204    -0.39200
O1033       O  0.24883585  0.05210960  0.83024331    -0.39900
O1034       O  0.21129655  0.05945257  0.82783990    -0.40000
C1035       C  0.31874927  0.04477044  0.94853547    -0.12300
C1036       C  0.29950943  0.02835090  0.91588530     0.04700
C1037       C  0.31195225  0.03125212  0.87646134    -0.07500
C1038       C  0.34292426  0.04710690  0.87164485    -0.08300
C1039       C  0.36243621  0.06075385  0.90530390    -0.02800
C1040       C  0.34974690  0.06101707  0.94356917     0.04000
N1041       N  0.36768886  0.07795240  0.97753716     0.66500
H1042       H  0.30971147  0.04439541  0.97875697     0.15400
H1043       H  0.35160895  0.04740415  0.84121731     0.15100
N1044       N  0.29387539  0.01693172  0.84128127     0.74200
O1045       O  0.37329066  0.10442340  0.98191809    -0.39300
O1046       O  0.37073727  0.06461140  0.00792563    -0.39200
O1047       O  0.29046313  0.03260547  0.81460932    -0.39900
O1048       O  0.28853974  0.99116659  0.83156775    -0.40000
C1049       C  0.20937456  0.90863665  0.09327640    -0.12300
C1050       C  0.19628994  0.89328263  0.05662589     0.04700
C1051       C  0.19274819  0.86466825  0.05035087    -0.07500
C1052       C  0.20376249  0.85292421  0.07964965    -0.08300
C1053       C  0.21838007  0.86940338  0.11467273    -0.02800
C1054       C  0.22091990  0.89727517  0.12175630     0.04000
N1055       N  0.23706699  0.91536942  0.15618552     0.66500
H1056       H  0.21237371  0.93055775  0.09898078     0.15400
H1057       H  0.20205044  0.83151194  0.07417968     0.15100
N1058       N  0.17969236  0.84799107  0.01365696     0.74200
O1059       O  0.26473014  0.93260477  0.15282184    -0.39300
O1060       O  0.22317804  0.92051515  0.18379010    -0.39200
O1061       O  0.19628007  0.84720399  0.98591074    -0.39900
O1062       O  0.15238330  0.82877085  0.01350385    -0.40000
C1063       C  0.47990142  0.87168085  0.60811552    -0.12300
C1064       C  0.46297085  0.87899589  0.63407897     0.04700
C1065       C  0.46805078  0.88018256  0.67705749    -0.07500
C1066       C  0.49137124  0.87688031  0.69257397    -0.08300
C1067       C  0.51012173  0.87221608  0.66628132    -0.02800
C1068       C  0.50314853  0.86817808  0.62362435     0.04000
N1069       N  0.51971035  0.86112847  0.59523620     0.66500
H1070       H  0.47603365  0.87001602  0.57518605     0.15400
H1071       H  0.49548122  0.87924843  0.72544397     0.15100
N1072       N  0.44973537  0.88468674  0.70558411     0.74200
O1073       O  0.51041385  0.83420388  0.58627789    -0.39300
O1074       O  0.53862521  0.88130423  0.57216475    -0.39200
O1075       O  0.42794210  0.86231037  0.72186467    -0.39900
O1076       O  0.45939354  0.91000282  0.72180078    -0.40000
C1077       C  0.69065678  0.88075633  0.59573466    -0.12300
C1078       C  0.68234439  0.87959520  0.55459418     0.04700
C1079       C  0.65215634  0.86353895  0.54337851    -0.07500
C1080       C  0.63060430  0.85250507  0.57410245    -0.08300
C1081       C  0.63890043  0.85659334  0.61559632    -0.02800
C1082       C  0.66905188  0.86863643  0.62641560     0.04000
N1083       N  0.67826884  0.87130463  0.66839495     0.66500
H1084       H  0.71395312  0.89250251  0.60421365     0.15400
H1085       H  0.60742500  0.84280370  0.56561005     0.15100
N1086       N  0.64303491  0.86155478  0.50143760     0.74200
O1087       O  0.68178433  0.85101704  0.68390429    -0.39300
O1088       O  0.68970883  0.89635879  0.68596451    -0.39200
O1089       O  0.63294792  0.83711577  0.48252620    -0.39900
O1090       O  0.63934404  0.88187573  0.48644820    -0.40000
C1091       C  0.61511502  0.12478792  0.81166733    -0.12300
C1092       C  0.64035044  0.13316058  0.83589797     0.04700
C1093       C  0.63979997  0.14114311  0.87758999    -0.07500
C1094       C  0.61363823  0.13826018  0.89470044    -0.08300
C1095       C  0.58762545  0.12730912  0.87122851    -0.02800
C1096       C  0.58900544  0.12169850  0.82876626     0.04000
N1097       N  0.56369665  0.11164554  0.80264351     0.66500
H1098       H  0.61493926  0.11883246  0.77962345     0.15400
H1099       H  0.61334924  0.14329320  0.92703380     0.15100
N1100       N  0.66547415  0.15200091  0.90321368     0.74200
O1101       O  0.56149704  0.13012093  0.77988530    -0.39300
O1102       O  0.54788079  0.08416922  0.79518600    -0.39200
O1103       O  0.68250679  0.17975185  0.90685778    -0.39900
O1104       O  0.66693454  0.13479074  0.92929467    -0.40000
C1105       C  0.64188371  0.02442403  0.71555172    -0.12300
C1106       C  0.64400032  0.03444641  0.75632332     0.04700
C1107       C  0.62936445  0.01264195  0.78749050    -0.07500
C1108       C  0.61502567  0.98221418  0.77788011    -0.08300
C1109       C  0.61393511  0.97208311  0.73760640    -0.02800
C1110       C  0.62725109  0.99381985  0.70596356     0.04000
N1111       N  0.62801697  0.98543282  0.66422918     0.66500
H1112       H  0.65292689  0.04038602  0.69102307     0.15400
H1113       H  0.60575660  0.96639109  0.80274414     0.15100
N1114       N  0.62929948  0.02071212  0.82957072     0.74200
O1115       O  0.60632820  0.97883372  0.64063301    -0.39300
O1116       O  0.64920987  0.98212548  0.65200659    -0.39200
O1117       O  0.60648084  0.02014600  0.84390227    -0.39900
O1118       O  0.64790626  0.02040084  0.85413679    -0.40000
C1119       C  0.78377372  0.01463984  0.28566876    -0.12300
C1120       C  0.78886205  0.99104948  0.29387031     0.04700
C1121       C  0.80006753  0.98090289  0.26159710    -0.07500
C1122       C  0.80494942  0.99365708  0.22229556    -0.08300
C1123       C  0.79968410  0.01701894  0.21421807    -0.02800
C1124       C  0.78910103  0.02763780  0.24635507     0.04000
N1125       N  0.78247398  0.05081128  0.23918160     0.66500
H1126       H  0.77480054  0.02251334  0.30950473     0.15400
H1127       H  0.81397736  0.98595227  0.19829165     0.15100
N1128       N  0.80805151  0.95863879  0.26855755     0.74200
O1129       O  0.75729002  0.04414262  0.22513325    -0.39300
O1130       O  0.79803971  0.07570670  0.25648594    -0.39200
O1131       O  0.79170659  0.93270314  0.25454248    -0.39900
O1132       O  0.83423492  0.96655594  0.27955537    -0.40000
C1133       C  0.79268031  0.13878241  0.96189340    -0.12300
C1134       C  0.80509529  0.12174097  0.94830429     0.04700
C1135       C  0.80756097  0.11814721  0.90573686    -0.07500
C1136       C  0.79577041  0.12979691  0.87770406    -0.08300
C1137       C  0.78045854  0.14393894  0.89149206    -0.02800
C1138       C  0.77978128  0.14938185  0.93386871     0.04000
N1139       N  0.76520930  0.16459373  0.94903891     0.66500
H1140       H  0.79067566  0.14168765  0.99458102     0.15400
H1141       H  0.79650344  0.12563290  0.84510923     0.15100
N1142       N  0.82064786  0.10152931  0.89052460     0.74200
O1143       O  0.73861456  0.14962048  0.96106931    -0.39300
O1144       O  0.78069969  0.19142488  0.96016809    -0.39200
O1145       O  0.80401736  0.07525336  0.87784724    -0.39900
O1146       O  0.84768017  0.11521258  0.88023482    -0.40000
C1147       C  0.64570875  0.12083278  0.62316422    -0.12300
C1148       C  0.67632994  0.14134218  0.62448556     0.04700
C1149       C  0.69143770  0.15327219  0.58664572    -0.07500
C1150       C  0.67612022  0.14391208  0.54923262    -0.08300
C1151       C  0.64563729  0.12345513  0.54809734    -0.02800
C1152       C  0.63030065  0.11204591  0.58572588     0.04000
N1153       N  0.59919427  0.09086477  0.58663341     0.66500
H1154       H  0.63345976  0.11139544  0.65140925     0.15400
H1155       H  0.68814326  0.15337341  0.52081801     0.15100
N1156       N  0.72234376  0.17497095  0.58514732     0.74200
O1157       O  0.59065670  0.06342392  0.58752547    -0.39300
O1158       O  0.58114186  0.09941988  0.59607147    -0.39200
O1159       O  0.74051595  0.16694527  0.57414496    -0.39900
O1160       O  0.73013505  0.20223038  0.58366738    -0.40000
C1161       C  0.52083363  0.12242389  0.33491241    -0.12300
C1162       C  0.52494971  0.12630360  0.37777925     0.04700
C1163       C  0.50804862  0.13611682  0.39975880    -0.07500
C1164       C  0.48589443  0.13916997  0.37935393    -0.08300
C1165       C  0.48028772  0.13307463  0.33691382    -0.02800
C1166       C  0.49906555  0.12586946  0.31446414     0.04000
N1167       N  0.49551691  0.12042988  0.27120471     0.66500
H1168       H  0.53405271  0.11564050  0.31705975     0.15400
H1169       H  0.47219145  0.14525992  0.39732362     0.15100
N1170       N  0.51153914  0.14112655  0.44315104     0.74200
O1171       O  0.51221661  0.14108009  0.24694377    -0.39300
O1172       O  0.48167090  0.09393623  0.25820862    -0.39200
O1173       O  0.52616788  0.16749314  0.45645681    -0.39900
O1174       O  0.49440165  0.12061090  0.46730908    -0.40000
C1175       C  0.47716396  0.97574732  0.48704035    -0.12300
C1176       C  0.47293257  0.97789275  0.52945797     0.04700
C1177       C  0.49020687  0.00598230  0.54871964    -0.07500
C1178       C  0.51110672  0.03055945  0.52578413    -0.08300
C1179       C  0.51536172  0.02828032  0.48343439    -0.02800
C1180       C  0.49778938  0.00036903  0.46407835     0.04000
N1181       N  0.49980890  0.99660171  0.42085258     0.66500
H1182       H  0.46397621  0.95478417  0.47104653     0.15400
H1183       H  0.52425983  0.05163014  0.54155983     0.15100
N1184       N  0.48709925  0.01022392  0.59149823     0.74200
O1185       O  0.51481250  0.98519721  0.40825479    -0.39300
O1186       O  0.48124202  0.99763381  0.39697497    -0.39200
O1187       O  0.50640212  0.01177649  0.61643286    -0.39900
O1188       O  0.47053514  0.02033741  0.60213408    -0.40000
C1189       C  0.70403997  0.02496809  0.38716414    -0.12300
C1190       C  0.70825300  0.01912653  0.42798594     0.04700
C1191       C  0.69822829  0.03087640  0.45985878    -0.07500
C1192       C  0.68238599  0.04544864  0.45039016    -0.08300
C1193       C  0.67624693  0.04935058  0.40960644    -0.02800
C1194       C  0.68859729  0.04001263  0.37770389     0.04000
N1195       N  0.68576809  0.04543781  0.33529258     0.66500
H1196       H  0.71198103  0.01701268  0.36209066     0.15400
H1197       H  0.67413062  0.05303224  0.47552522     0.15100
N1198       N  0.70363003  0.02817849  0.50233664     0.74200
O1199       O  0.70672808  0.06797693  0.31801130    -0.39300
O1200       O  0.66671043  0.02446411  0.31333704    -0.39200
O1201       O  0.72601398  0.04932223  0.51961269    -0.39900
O1202       O  0.68269211  0.00912715  0.52431385    -0.40000
C1203       C  0.53960489  0.85381872  0.91307499    -0.12300
C1204       C  0.54138736  0.87084580  0.87829873     0.04700
C1205       C  0.53799156  0.89598779  0.88427669    -0.07500
C1206       C  0.53238580  0.90293699  0.92385261    -0.08300
C1207       C  0.53050208  0.88570422  0.95824894    -0.02800
C1208       C  0.53438912  0.86103246  0.95250119     0.04000
N1209       N  0.53161993  0.84201234  0.98589455     0.66500
H1210       H  0.54199723  0.83434890  0.90991275     0.15400
H1211       H  0.52973653  0.92221966  0.92774101     0.15100
N1212       N  0.54131110  0.91552776  0.85125829     0.74200
O1213       O  0.50670504  0.81914064  0.99258416    -0.39300
O1214       O  0.55475821  0.84313675  0.99986812    -0.39200
O1215       O  0.51858324  0.91113852  0.83156449    -0.39900
O1216       O  0.56418096  0.94105154  0.85044765    -0.40000
C1217       C  0.38396855  0.87774908  0.10410368    -0.12300
C1218       C  0.40944562  0.88753568  0.12835326     0.04700
C1219       C  0.40742468  0.89161151  0.17122221    -0.07500
C1220       C  0.38090325  0.88733456  0.18828634    -0.08300
C1221       C  0.35612661  0.87988319  0.16360290    -0.02800
C1222       C  0.35758632  0.87430376  0.12106327     0.04000
N1223       N  0.33285900  0.86591779  0.09426097     0.66500
H1224       H  0.38496354  0.87439663  0.07132438     0.15400
H1225       H  0.38041927  0.89178803  0.22081756     0.15100
N1226       N  0.43245404  0.90138529  0.19789936     0.74200
O1227       O  0.33189669  0.88566389  0.07280347    -0.39300
O1228       O  0.31687744  0.83891340  0.08419595    -0.39200
O1229       O  0.44664999  0.92835599  0.20885018    -0.39900
O1230       O  0.43537795  0.88234827  0.21827907    -0.40000
C1231       C  0.52630141  0.00744978  0.21504068    -0.12300
C1232       C  0.51930814  0.97886504  0.22801727     0.04700
C1233       C  0.51920392  0.97286964  0.27026347    -0.07500
C1234       C  0.52946572  0.99630419  0.29820950    -0.08300
C1235       C  0.54016572  0.02546093  0.28433510    -0.02800
C1236       C  0.53723452  0.03094834  0.24288132     0.04000
N1237       N  0.54671121  0.06033380  0.22828741     0.66500
H1238       H  0.52604319  0.01226890  0.18267222     0.15400
H1239       H  0.53142271  0.99207003  0.33036462     0.15100
N1240       N  0.51022575  0.94360980  0.28499715     0.74200
O1241       O  0.57269780  0.07593666  0.21427926    -0.39300
O1242       O  0.52745177  0.06752176  0.22008471    -0.39200
O1243       O  0.52974283  0.93736178  0.29577641    -0.39900
O1244       O  0.48366656  0.92691812  0.29625237    -0.40000
C1245       C  0.64399334  0.95460603  0.06075433    -0.12300
C1246       C  0.63405340  0.95440818  0.10094199     0.04700
C1247       C  0.65577173  0.96754569  0.13270843    -0.07500
C1248       C  0.68615344  0.98241210  0.12302311    -0.08300
C1249       C  0.69590175  0.98475254  0.08227417    -0.02800
C1250       C  0.67434656  0.96937568  0.05120811     0.04000
N1251       N  0.68272260  0.96872873  0.00947340     0.66500
H1252       H  0.62812495  0.94404296  0.03601149     0.15400
H1253       H  0.70213947  0.99358052  0.14747600     0.15100
N1254       N  0.64771759  0.96736617  0.17486230     0.74200
O1255       O  0.68591091  0.94735532  0.99756434    -0.39300
O1256       O  0.67957149  0.98471440  0.98302877    -0.39200
O1257       O  0.64873250  0.94908525  0.19942016    -0.39900
O1258       O  0.64694047  0.98958194  0.18916845    -0.40000
C1259       C  0.49045068  0.98257824  0.98418858    -0.12300
C1260       C  0.49832791  0.98491220  0.02601328     0.04700
C1261       C  0.50827505  0.01270276  0.04578458    -0.07500
C1262       C  0.51024145  0.03698571  0.02364828    -0.08300
C1263       C  0.50216788  0.03447125  0.98180440    -0.02800
C1264       C  0.49221153  0.00665949  0.96222883     0.04000
N1265       N  0.48418566  0.00233146  0.91971339     0.66500
H1266       H  0.48293941  0.96176844  0.96790154     0.15400
H1267       H  0.51766884  0.05786155  0.03971589     0.15100
N1268       N  0.51529973  0.01651822  0.08866216     0.74200
O1269       O  0.50344325  0.00596443  0.89316351    -0.39300
O1270       O  0.45704716  0.98810098  0.91008680    -0.39200
O1271       O  0.54217009  0.03079892  0.09964421    -0.39900
O1272       O  0.49534512  0.01246522  0.11424529    -0.40000
C1273       C  0.45944202  0.15858510  0.78392581    -0.12300
C1274       C  0.46059216  0.15821456  0.82738601     0.04700
C1275       C  0.46051070  0.18178796  0.84911176    -0.07500
C1276       C  0.45670044  0.20311179  0.82776185    -0.08300
C1277       C  0.45314017  0.20191349  0.78476171    -0.02800
C1278       C  0.45557484  0.17989983  0.76266096     0.04000
N1279       N  0.45066502  0.17652410  0.71928069     0.66500
H1280       H  0.45965656  0.14106542  0.76602954     0.15400
H1281       H  0.45536794  0.22020742  0.84525902     0.15100
N1282       N  0.46301639  0.18395532  0.89289547     0.74200
O1283       O  0.42460795  0.15967385  0.70635732    -0.39300
O1284       O  0.47227170  0.18270196  0.69567551    -0.39200
O1285       O  0.48786651  0.20172911  0.90877722    -0.39900
O1286       O  0.43979164  0.17457582  0.91434728    -0.40000
C1287       C  0.32676027  0.19024761  0.69355572    -0.12300
C1288       C  0.35450495  0.19415022  0.68171907     0.04700
C1289       C  0.35522752  0.17642400  0.64901948    -0.07500
C1290       C  0.32874517  0.15484450  0.63051177    -0.08300
C1291       C  0.30099172  0.15064257  0.64270711    -0.02800
C1292       C  0.30032402  0.16925151  0.67407100     0.04000
N1293       N  0.27339052  0.16859535  0.68482728     0.66500
H1294       H  0.32555026  0.20416670  0.71749639     0.15400
H1295       H  0.33005489  0.14114064  0.60632257     0.15100
N1296       N  0.38249308  0.17949802  0.63430355     0.74200
O1297       O  0.26038020  0.15626352  0.71796693    -0.39300
O1298       O  0.26708653  0.18637514  0.66722648    -0.39200
O1299       O  0.38919350  0.16013408  0.64421280    -0.39900
O1300       O  0.39468523  0.19555353  0.60312463    -0.40000
C1301       C  0.21408056  0.08233680  0.99669695    -0.12300
C1302       C  0.21211198  0.08350074  0.03969785     0.04700
C1303       C  0.20568992  0.05804957  0.06294241    -0.07500
C1304       C  0.20278824  0.03270528  0.04304862    -0.08300
C1305       C  0.20672720  0.03224918  0.00015046    -0.02800
C1306       C  0.21181019  0.05736008  0.97692312     0.04000
N1307       N  0.21694636  0.05899303  0.93361724     0.66500
H1308       H  0.21884656  0.10162133  0.97821616     0.15400
H1309       H  0.19898096  0.01382187  0.06171704     0.15100
N1310       N  0.20511505  0.05852640  0.10689932     0.74200
O1311       O  0.19586587  0.05384413  0.90962841    -0.39300
O1312       O  0.24330079  0.07305865  0.92037649    -0.39200
O1313       O  0.18060914  0.04413043  0.12547777    -0.39900
O1314       O  0.22896726  0.06724033  0.12659782    -0.40000
C1315       C  0.33651156  0.20564437  0.95421373    -0.12300
C1316       C  0.30782907  0.19807991  0.94138530     0.04700
C1317       C  0.30187517  0.19792853  0.89902940    -0.07500
C1318       C  0.32499425  0.20726405  0.87070327    -0.08300
C1319       C  0.35416960  0.21798718  0.88409821    -0.02800
C1320       C  0.35989982  0.21633105  0.92601029     0.04000
N1321       N  0.38938939  0.22673123  0.94063843     0.66500
H1322       H  0.34136981  0.20583988  0.98663553     0.15400
H1323       H  0.32050758  0.20856649  0.83839811     0.15100
N1324       N  0.27294585  0.19002066  0.88443756     0.74200
O1325       O  0.40468998  0.25324396  0.95317194    -0.39300
O1326       O  0.39701749  0.20801335  0.95044020    -0.39200
O1327       O  0.26779343  0.21034610  0.87369472    -0.39900
O1328       O  0.25562686  0.16363702  0.87275378    -0.40000
C1329       C  0.35784768  0.18050558  0.14713804    -0.12300
C1330       C  0.35609874  0.17596608  0.19005367     0.04700
C1331       C  0.32887591  0.16801932  0.20983713    -0.07500
C1332       C  0.30475585  0.16530349  0.18701364    -0.08300
C1333       C  0.30671038  0.17042363  0.14428649    -0.02800
C1334       C  0.33371040  0.17781873  0.12432363     0.04000
N1335       N  0.33707294  0.18226643  0.08082555     0.66500
H1336       H  0.37818230  0.18615462  0.13083159     0.15400
H1337       H  0.28438570  0.15958312  0.20328145     0.15100
N1338       N  0.32528422  0.16327746  0.25324504     0.74200
O1339       O  0.34938039  0.20846287  0.06686862    -0.39300
O1340       O  0.33482634  0.16150872  0.05805938    -0.39200
O1341       O  0.32819455  0.18418892  0.27625229    -0.39900
O1342       O  0.31175200  0.13692859  0.26669311    -0.40000
C1343       C  0.33605380  0.36560478  0.77952590    -0.12300
C1344       C  0.34483849  0.38538166  0.74645215     0.04700
C1345       C  0.36785827  0.38815180  0.72042377    -0.07500
C1346       C  0.38108638  0.37053334  0.72717751    -0.08300
C1347       C  0.37175343  0.34997276  0.75986917    -0.02800
C1348       C  0.34873310  0.34769973  0.78609569     0.04000
N1349       N  0.33592200  0.32544163  0.81744805     0.66500
H1350       H  0.31768494  0.36245550  0.79882774     0.15400
H1351       H  0.39873096  0.37303223  0.70689613     0.15100
N1352       N  0.37794701  0.40890080  0.68703828     0.74200
O1353       O  0.34282110  0.33274189  0.85460885    -0.39300
O1354       O  0.31324480  0.30069992  0.80913049    -0.39200
O1355       O  0.38938749  0.43639961  0.69431101    -0.39900
O1356       O  0.37118185  0.39951826  0.65056127    -0.40000
C1357       C  0.21965123  0.19730881  0.24595289    -0.12300
C1358       C  0.20963753  0.20512379  0.21029388     0.04700
C1359       C  0.19274304  0.21928080  0.21526067    -0.07500
C1360       C  0.18576761  0.22460492  0.25486223    -0.08300
C1361       C  0.19499260  0.21601514  0.29052309    -0.02800
C1362       C  0.21251396  0.20248178  0.28563500     0.04000
N1363       N  0.22216546  0.19255655  0.32024376     0.66500
H1364       H  0.23282098  0.18655179  0.24319304     0.15400
H1365       H  0.17251780  0.23527466  0.25747885     0.15100
N1366       N  0.18102411  0.22701523  0.18071032     0.74200
O1367       O  0.20616539  0.16618012  0.33287406    -0.39300
O1368       O  0.24906025  0.20705304  0.33104408    -0.39200
O1369       O  0.15437644  0.20984174  0.17028757    -0.39900
O1370       O  0.19411321  0.25362188  0.16829285    -0.40000
C1371       C  0.20374593  0.16811982  0.47809605    -0.12300
C1372       C  0.19899171  0.18715971  0.50361406     0.04700
C1373       C  0.19371738  0.18014240  0.54615646    -0.07500
C1374       C  0.19665385  0.15673367  0.56263866    -0.08300
C1375       C  0.20395937  0.13940519  0.53742274    -0.02800
C1376       C  0.20579671  0.14427335  0.49438603     0.04000
N1377       N  0.20930969  0.12490800  0.46657223     0.66500
H1378       H  0.20680520  0.17218736  0.44524812     0.15400
H1379       H  0.19419125  0.15280305  0.59554954     0.15100
N1380       N  0.18473534  0.19601827  0.57299785     0.74200
O1381       O  0.18648363  0.10198860  0.45331893    -0.39300
O1382       O  0.23375878  0.13411925  0.44821520    -0.39200
O1383       O  0.15736369  0.18602568  0.57885013    -0.39900
O1384       O  0.20322758  0.21467256  0.59809759    -0.40000
C1385       C  0.18947499  0.33796930  0.61873872    -0.12300
C1386       C  0.21351216  0.36559412  0.60670771     0.04700
C1387       C  0.22276323  0.37013684  0.56518601    -0.07500
C1388       C  0.20978102  0.34638320  0.53761518    -0.08300
C1389       C  0.18810739  0.31807708  0.55091252    -0.02800
C1390       C  0.17695601  0.31404188  0.59124048     0.04000
N1391       N  0.15371228  0.28572785  0.60505970     0.66500
H1392       H  0.18192255  0.33418703  0.65039926     0.15400
H1393       H  0.21818217  0.34958178  0.50634379     0.15100
N1394       N  0.24627449  0.39820432  0.55097920     0.74200
O1395       O  0.16020821  0.26917387  0.62558826    -0.39300
O1396       O  0.12741531  0.28088605  0.60594907    -0.39200
O1397       O  0.27160949  0.40137887  0.54444118    -0.39900
O1398       O  0.24005933  0.41683766  0.53605733    -0.40000
C1399       C  0.36212082  0.48647093  0.91968601    -0.12300
C1400       C  0.34448010  0.47938399  0.95542223     0.04700
C1401       C  0.31338153  0.46492836  0.95088795    -0.07500
C1402       C  0.30068345  0.45746748  0.91172651    -0.08300
C1403       C  0.31816234  0.46440220  0.87590710    -0.02800
C1404       C  0.34936862  0.47933614  0.88026250     0.04000
N1405       N  0.36856378  0.48844211  0.84523977     0.66500
H1406       H  0.38611017  0.49782143  0.92221217     0.15400
H1407       H  0.27668591  0.44636021  0.90962847     0.15100
N1408       N  0.29423340  0.45940462  0.98526730     0.74200
O1409       O  0.37825495  0.51426210  0.83082421    -0.39300
O1410       O  0.38115237  0.47395318  0.83537917    -0.39200
O1411       O  0.28366075  0.47631848  0.99086953    -0.39900
O1412       O  0.28138665  0.43384245  0.00136643    -0.40000
C1413       C  0.29070959  0.32999070  0.04320668    -0.12300
C1414       C  0.28206448  0.31009949  0.07681228     0.04700
C1415       C  0.28610137  0.32201292  0.11692224    -0.07500
C1416       C  0.30015790  0.35292736  0.12243184    -0.08300
C1417       C  0.31114327  0.37290607  0.08887113    -0.02800
C1418       C  0.30527209  0.36090538  0.04875438     0.04000
N1419       N  0.31523927  0.37954481  0.01314653     0.66500
H1420       H  0.28730067  0.32166982  0.01190328     0.15400
H1421       H  0.30364722  0.36126145  0.15373500     0.15100
N1422       N  0.27759795  0.30349790  0.15265624     0.74200
O1423       O  0.33965042  0.38566928  0.99675027    -0.39300
O1424       O  0.29688629  0.38356659  0.99289368    -0.39200
O1425       O  0.29704311  0.30046756  0.17165984    -0.39900
O1426       O  0.25401679  0.29777203  0.17119838    -0.40000
C1427       C  0.43968001  0.30802094  0.58350083    -0.12300
C1428       C  0.44841602  0.32575472  0.61935608     0.04700
C1429       C  0.46331310  0.35699919  0.61499703    -0.07500
C1430       C  0.47046842  0.36964563  0.57568213    -0.08300
C1431       C  0.46291182  0.35189991  0.53997079    -0.02800
C1432       C  0.44675425  0.32065616  0.54419527     0.04000
N1433       N  0.43888242  0.30130403  0.50931894     0.66500
H1434       H  0.42780834  0.28393981  0.58579725     0.15400
H1435       H  0.48230769  0.39372457  0.57326425     0.15100
N1436       N  0.47233369  0.37639613  0.64985577     0.74200
O1437       O  0.45665811  0.29311019  0.49700057    -0.39300
O1438       O  0.41209579  0.28679682  0.49807096    -0.39200
O1439       O  0.49941487  0.39031019  0.65982848    -0.39900
O1440       O  0.45550740  0.38562217  0.66276078    -0.40000
C1441       C  0.45406441  0.29731528  0.35331078    -0.12300
C1442       C  0.45370830  0.31867546  0.32717307     0.04700
C1443       C  0.45301663  0.31398166  0.28393362    -0.07500
C1444       C  0.45158818  0.28804085  0.26836265    -0.08300
C1445       C  0.45001593  0.26598473  0.29477447    -0.02800
C1446       C  0.45192546  0.27115992  0.33769919     0.04000
N1447       N  0.45140579  0.24991686  0.36610912     0.66500
H1448       H  0.45485585  0.30023848  0.38642055     0.15400
H1449       H  0.44986085  0.28433461  0.23537580     0.15100
N1450       N  0.45222588  0.33439865  0.25519717     0.74200
O1451       O  0.47565985  0.25274270  0.37846096    -0.39300
O1452       O  0.42793120  0.23354153  0.38607111    -0.39200
O1453       O  0.47542783  0.35175763  0.23536861    -0.39900
O1454       O  0.42743226  0.33010927  0.24268256    -0.40000
C1455       C  0.45094882  0.47291731  0.29637371    -0.12300
C1456       C  0.47103090  0.46417144  0.28338264     0.04700
C1457       C  0.48193056  0.46982348  0.24293894    -0.07500
C1458       C  0.46991031  0.48100273  0.21462072    -0.08300
C1459       C  0.44645726  0.48552546  0.22616034    -0.02800
C1460       C  0.43831377  0.48335721  0.26801084     0.04000
N1461       N  0.41572603  0.48936966  0.28170359     0.66500
H1462       H  0.44274785  0.46876912  0.32775094     0.15400
H1463       H  0.47687513  0.48321382  0.18272785     0.15100
N1464       N  0.50345712  0.46226113  0.22954544     0.74200
O1465       O  0.38944216  0.46803445  0.28566596    -0.39300
O1466       O  0.42325269  0.51370566  0.29969380    -0.39200
O1467       O  0.49507202  0.43838280  0.20983459    -0.39900
O1468       O  0.53058352  0.48204934  0.22934651    -0.40000
C1469       C  0.33962719  0.31319394  0.37811658    -0.12300
C1470       C  0.35985931  0.32316806  0.41131225     0.04700
C1471       C  0.34813173  0.31411715  0.45144376    -0.07500
C1472       C  0.31719885  0.29774198  0.45742123    -0.08300
C1473       C  0.29704660  0.29022690  0.42443570    -0.02800
C1474       C  0.30879563  0.29735101  0.38415896     0.04000
N1475       N  0.29007479  0.29086070  0.34897650     0.66500
H1476       H  0.34761517  0.31894580  0.34677083     0.15400
H1477       H  0.30896024  0.29198978  0.48867010     0.15100
N1478       N  0.36685511  0.32215832  0.48687295     0.74200
O1479       O  0.28357794  0.30998626  0.33693650    -0.39300
O1480       O  0.28717554  0.27076461  0.32433617    -0.39200
O1481       O  0.37401834  0.34635733  0.50500759    -0.39900
O1482       O  0.36827270  0.30193615  0.50642958    -0.40000
C1483       C  0.52197622  0.41007194  0.83118187    -0.12300
C1484       C  0.52418237  0.41038202  0.87442872     0.04700
C1485       C  0.50548164  0.38407539  0.89618341    -0.07500
C1486       C  0.48351632  0.35915736  0.87505412    -0.08300
C1487       C  0.47941478  0.35969479  0.83217184    -0.02800
C1488       C  0.50003069  0.38516874  0.80996658     0.04000
N1489       N  0.49812452  0.38705332  0.76631623     0.66500
H1490       H  0.53662732  0.42989914  0.81369515     0.15400
H1491       H  0.46854500  0.33970402  0.89292664     0.15100
N1492       N  0.50649890  0.38304529  0.94003659     0.74200
O1493       O  0.48276682  0.39741599  0.75155961    -0.39300
O1494       O  0.51723183  0.38573648  0.74386122    -0.39200
O1495       O  0.48760675  0.38579491  0.96103953    -0.39900
O1496       O  0.52106116  0.37245877  0.95673530    -0.40000
C1497       C  0.50983236  0.52153542  0.96752860    -0.12300
C1498       C  0.51583898  0.49954359  0.98178168     0.04700
C1499       C  0.50040973  0.48302043  0.01715833    -0.07500
C1500       C  0.47951449  0.48843646  0.03664815    -0.08300
C1501       C  0.47347354  0.51042462  0.02240449    -0.02800
C1502       C  0.48934935  0.52735456  0.98749597     0.04000
N1503       N  0.48604330  0.55141267  0.97261017     0.66500
H1504       H  0.52165633  0.53499531  0.94106099     0.15400
H1505       H  0.46786824  0.47508260  0.06327404     0.15100
N1506       N  0.50541262  0.46048205  0.03391243     0.74200
O1507       O  0.50209506  0.57708130  0.98763932    -0.39300
O1508       O  0.47330592  0.54873047  0.93853578    -0.39200
O1509       O  0.52185938  0.46638274  0.06512996    -0.39900
O1510       O  0.48840920  0.43364426  0.02385018    -0.40000
C1511       C  0.38358159  0.51847466  0.60536535    -0.12300
C1512       C  0.40783905  0.53617313  0.63096865     0.04700
C1513       C  0.40417409  0.53155284  0.67411327    -0.07500
C1514       C  0.37756860  0.50840243  0.69025867    -0.08300
C1515       C  0.35414693  0.48914718  0.66442824    -0.02800
C1516       C  0.35700867  0.49512157  0.62149529     0.04000
N1517       N  0.33342392  0.47739870  0.59355425     0.66500
H1518       H  0.38567698  0.52180242  0.57232497     0.15400
H1519       H  0.37593149  0.50461107  0.72321178     0.15100
N1520       N  0.42737749  0.54985084  0.70220416     0.74200
O1521       O  0.31505669  0.48553120  0.58418330    -0.39300
O1522       O  0.33500549  0.45816748  0.57159264    -0.39200
O1523       O  0.42599443  0.57031875  0.72125822    -0.39900
O1524       O  0.44404303  0.54068545  0.71582817    -0.40000
C1525       C  0.53377287  0.69544654  0.71198317    -0.12300
C1526       C  0.53795926  0.69587778  0.66897797     0.04700
C1527       C  0.54045856  0.72022488  0.64635233    -0.07500
C1528       C  0.54176842  0.74450577  0.66722922    -0.08300
C1529       C  0.54021473  0.74510534  0.71049126    -0.02800
C1530       C  0.53472645  0.71961169  0.73274897     0.04000
N1531       N  0.53243522  0.71870240  0.77660496     0.66500
H1532       H  0.53099742  0.67669381  0.73008331     0.15400
H1533       H  0.54543296  0.76374000  0.64948464     0.15100
N1534       N  0.54368813  0.72173079  0.60257889     0.74200
O1535       O  0.50702425  0.70564651  0.79301487    -0.39300
O1536       O  0.55480589  0.72402073  0.79796669    -0.39200
O1537       O  0.52128531  0.71484278  0.58033586    -0.39900
O1538       O  0.56931094  0.73620873  0.58700244    -0.40000
C1539       C  0.49175582  0.52511506  0.48304687    -0.12300
C1540       C  0.49699042  0.52834059  0.52573848     0.04700
C1541       C  0.50602933  0.50980708  0.54519810    -0.07500
C1542       C  0.50908515  0.48856362  0.52208996    -0.08300
C1543       C  0.50330712  0.48505143  0.47949800    -0.02800
C1544       C  0.49483024  0.50400716  0.46000820     0.04000
N1545       N  0.48970700  0.50268305  0.41664414     0.66500
H1546       H  0.48535797  0.53930589  0.46697088     0.15400
H1547       H  0.51552616  0.47432499  0.53793083     0.15100
N1548       N  0.51134259  0.51145892  0.58852288     0.74200
O1549       O  0.46335372  0.48919625  0.40345319    -0.39300
O1550       O  0.51028183  0.52074230  0.39329462    -0.39200
O1551       O  0.49123909  0.49291710  0.61201853    -0.39900
O1552       O  0.53766402  0.52614165  0.60166391    -0.40000
C1553       C  0.56874102  0.55167750  0.74901158    -0.12300
C1554       C  0.54902944  0.53201666  0.77873334     0.04700
C1555       C  0.51913327  0.52535268  0.77886738    -0.07500
C1556       C  0.51012583  0.53959619  0.75069811    -0.08300
C1557       C  0.53065995  0.56049037  0.72321849    -0.02800
C1558       C  0.55990710  0.56615500  0.72181434     0.04000
N1559       N  0.58105904  0.58696650  0.69323068     0.66500
H1560       H  0.59171101  0.55704181  0.74774053     0.15400
H1561       H  0.48736998  0.53488893  0.75096361     0.15100
N1562       N  0.49779429  0.50453375  0.80715275     0.74200
O1563       O  0.59915889  0.61311961  0.70503643    -0.39300
O1564       O  0.58579752  0.57758931  0.65984630    -0.39200
O1565       O  0.49072274  0.51411439  0.83837395    -0.39900
O1566       O  0.48090324  0.47802640  0.79555945    -0.40000
C1567       C  0.53568487  0.65711709  0.38292517    -0.12300
C1568       C  0.54581822  0.68774788  0.38059303     0.04700
C1569       C  0.55091474  0.70395044  0.41790420    -0.07500
C1570       C  0.54360858  0.68902025  0.45568897    -0.08300
C1571       C  0.53195991  0.65819134  0.45769771    -0.02800
C1572       C  0.52917674  0.64239004  0.42088764     0.04000
N1573       N  0.52125875  0.61174501  0.42153516     0.66500
H1574       H  0.53270691  0.64435210  0.35511760     0.15400
H1575       H  0.54679118  0.70170028  0.48366742     0.15100
N1576       N  0.56415062  0.73564903  0.41842223     0.74200
O1577       O  0.49524471  0.59201493  0.41170638    -0.39300
O1578       O  0.54159521  0.60525573  0.42191611    -0.39200
O1579       O  0.54815198  0.74700838  0.42585070    -0.39900
O1580       O  0.59200340  0.75159338  0.42164451    -0.40000
C1581       C  0.49746895  0.62458374  0.19244581    -0.12300
C1582       C  0.51441994  0.64990276  0.16825778     0.04700
C1583       C  0.50636124  0.64933684  0.12639664    -0.07500
C1584       C  0.48279772  0.62336762  0.10941900    -0.08300
C1585       C  0.46734807  0.59738417  0.13288543    -0.02800
C1586       C  0.47451196  0.59840672  0.17527468     0.04000
N1587       N  0.45974766  0.57274546  0.20116545     0.66500
H1588       H  0.50322204  0.62435794  0.22445855     0.15400
H1589       H  0.47771711  0.62312129  0.07701881     0.15100
N1590       N  0.52240080  0.67453076  0.10011724     0.74200
O1591       O  0.47238235  0.55797580  0.20899420    -0.39300
O1592       O  0.43883283  0.56975197  0.22407850    -0.39200
O1593       O  0.54063730  0.67452386  0.07447857    -0.39900
O1594       O  0.51302733  0.69250510  0.09530519    -0.40000
C1595       C  0.52806936  0.84584093  0.21052092    -0.12300
C1596       C  0.53288666  0.85120109  0.16791130     0.04700
C1597       C  0.53828960  0.83152369  0.14424702    -0.07500
C1598       C  0.54149829  0.80923074  0.16374224    -0.08300
C1599       C  0.53955001  0.80590548  0.20673305    -0.02800
C1600       C  0.53166172  0.82380758  0.23004033     0.04000
N1601       N  0.53099742  0.82271121  0.27395161     0.66500
H1602       H  0.52356848  0.86027171  0.22959138     0.15400
H1603       H  0.54696615  0.79527668  0.14515545     0.15100
N1604       N  0.54257831  0.83486884  0.10080143     0.74200
O1605       O  0.55438276  0.83983121  0.29354958    -0.39300
O1606       O  0.50631820  0.81138042  0.29229419    -0.39200
O1607       O  0.56868833  0.84916911  0.08676071    -0.39900
O1608       O  0.52175895  0.81719603  0.07748941    -0.40000
C1609       C  0.66418961  0.82582799  0.29686467    -0.12300
C1610       C  0.63598032  0.81802853  0.31237174     0.04700
C1611       C  0.63439402  0.83288463  0.34804516    -0.07500
C1612       C  0.66049911  0.85351413  0.36824540    -0.08300
C1613       C  0.68873239  0.86070376  0.35332230    -0.02800
C1614       C  0.69027309  0.84701008  0.31642497     0.04000
N1615       N  0.71800307  0.85412855  0.29805530     0.66500
H1616       H  0.66625493  0.81525936  0.26926661     0.15400
H1617       H  0.65847734  0.86430331  0.39565165     0.15100
N1618       N  0.60672034  0.82838483  0.36350061     0.74200
O1619       O  0.72876379  0.83752678  0.30486759    -0.39300
O1620       O  0.72732359  0.87162835  0.26768099    -0.39200
O1621       O  0.59631275  0.81390060  0.39638987    -0.39900
O1622       O  0.59732226  0.84514964  0.35100805    -0.40000
C1623       C  0.78973687  0.97840426  0.95567475    -0.12300
C1624       C  0.79041726  0.98014287  0.99915802     0.04700
C1625       C  0.78965255  0.95638665  0.02141300    -0.07500
C1626       C  0.78606926  0.93109740  0.00042380    -0.08300
C1627       C  0.78344853  0.92870368  0.95726320    -0.02800
C1628       C  0.78607227  0.95307508  0.93477127     0.04000
N1629       N  0.78211164  0.95144306  0.89111844     0.66500
H1630       H  0.79041317  0.99620420  0.93746440     0.15400
H1631       H  0.78443847  0.91269338  0.01824636     0.15100
N1632       N  0.79102194  0.95673518  0.06534555     0.74200
O1633       O  0.75615719  0.93967480  0.87659169    -0.39300
O1634       O  0.80392409  0.96776057  0.86825045    -0.39200
O1635       O  0.76751345  0.94145929  0.08579690    -0.39900
O1636       O  0.81584815  0.96639752  0.08277449    -0.40000
C1637       C  0.69638664  0.68074325  0.95749904    -0.12300
C1638       C  0.70927338  0.70054761  0.92394741     0.04700
C1639       C  0.70715333  0.68805999  0.88453530    -0.07500
C1640       C  0.69145120  0.65701906  0.87943568    -0.08300
C1641       C  0.67688179  0.63750082  0.91248103    -0.02800
C1642       C  0.68021053  0.64976726  0.95216404     0.04000
N1643       N  0.66553107  0.63151088  0.98704267     0.66500
H1644       H  0.69768549  0.68921051  0.98839301     0.15400
H1645       H  0.68965246  0.64817378  0.84865404     0.15100
N1646       N  0.71964970  0.70614539  0.84881982     0.74200
O1647       O  0.67994511  0.62422233  0.01085992    -0.39300
O1648       O  0.64172571  0.62967698  0.99964459    -0.39200
O1649       O  0.73916520  0.70383326  0.82877585    -0.39900
O1650       O  0.70530239  0.71655984  0.83101967    -0.40000
C1651       C  0.63467003  0.78930352  0.07345219    -0.12300
C1652       C  0.64278848  0.79063834  0.11475806     0.04700
C1653       C  0.67301211  0.80442399  0.12567337    -0.07500
C1654       C  0.69456678  0.81506937  0.09482639    -0.08300
C1655       C  0.68638119  0.81199673  0.05327480    -0.02800
C1656       C  0.65621284  0.79989834  0.04254244     0.04000
N1657       N  0.64673739  0.79473341  0.00054759     0.66500
H1658       H  0.61137969  0.77811677  0.06498903     0.15400
H1659       H  0.71765690  0.82397564  0.10324972     0.15100
N1660       N  0.68190658  0.80422375  0.16724056     0.74200
O1661       O  0.64114574  0.77058931  0.98353174    -0.39300
O1662       O  0.63723154  0.81041649  0.98434709    -0.39200
O1663       O  0.68647068  0.78367940  0.17888226    -0.39900
O1664       O  0.69155344  0.82750824  0.18877589    -0.40000
C1665       C  0.66287086  0.84545779  0.79325158    -0.12300
C1666       C  0.63590447  0.83258449  0.81517517     0.04700
C1667       C  0.63551889  0.82224941  0.85561368    -0.07500
C1668       C  0.66166372  0.82569042  0.87320706    -0.08300
C1669       C  0.68868875  0.83877994  0.85138981    -0.02800
C1670       C  0.68883493  0.84820118  0.81043480     0.04000
N1671       N  0.71471754  0.85960355  0.78504843     0.66500
H1672       H  0.66382776  0.85299977  0.76193125     0.15400
H1673       H  0.66063762  0.81798038  0.90445882     0.15100
N1674       N  0.60888550  0.80811262  0.87952411     0.74200
O1675       O  0.71914680  0.84167804  0.76415972    -0.39300
O1676       O  0.72872236  0.88694334  0.77607281    -0.39200
O1677       O  0.59453742  0.78006369  0.88204393    -0.39900
O1678       O  0.60382513  0.82330432  0.90518341    -0.40000
C1679       C  0.80614215  0.78100169  0.74383946    -0.12300
C1680       C  0.79806881  0.79054734  0.70804393     0.04700
C1681       C  0.78239646  0.80598466  0.71258860    -0.07500
C1682       C  0.77618146  0.81237457  0.75206175    -0.08300
C1683       C  0.78523052  0.80378511  0.78789130    -0.02800
C1684       C  0.79992745  0.78733993  0.78329815     0.04000
N1685       N  0.81058361  0.77854540  0.81793354     0.66500
H1686       H  0.81804968  0.76893716  0.74141900     0.15400
H1687       H  0.76456690  0.82473941  0.75449616     0.15100
N1688       N  0.77387342  0.81671553  0.67774674     0.74200
O1689       O  0.79514874  0.75245458  0.83175960    -0.39300
O1690       O  0.83799758  0.79287621  0.82587338    -0.39200
O1691       O  0.74692128  0.80372333  0.66713756    -0.39900
O1692       O  0.79135684  0.84260212  0.66447370    -0.40000
C1693       C  0.78497970  0.83682832  0.52213919    -0.12300
C1694       C  0.79296481  0.82026947  0.49624032     0.04700
C1695       C  0.79800454  0.82816554  0.45394889    -0.07500
C1696       C  0.79335094  0.85075795  0.43842134    -0.08300
C1697       C  0.78315452  0.86563632  0.46382540    -0.02800
C1698       C  0.77981319  0.85900175  0.50647580     0.04000
N1699       N  0.77083409  0.87427368  0.53448829     0.66500
H1700       H  0.78113995  0.83155289  0.55464320     0.15400
H1701       H  0.79639629  0.85565680  0.40576439     0.15100
N1702       N  0.80708541  0.81304071  0.42587203     0.74200
O1703       O  0.74390025  0.86223511  0.54501830    -0.39300
O1704       O  0.79026750  0.89531037  0.55596498    -0.39200
O1705       O  0.78789448  0.79279749  0.40313220    -0.39900
O1706       O  0.83422160  0.82466644  0.41667944    -0.40000
C1707       C  0.68747635  0.72179985  0.60581883    -0.12300
C1708       C  0.69703283  0.71747106  0.56734125     0.04700
C1709       C  0.67497486  0.70023313  0.53739679    -0.07500
C1710       C  0.64470828  0.68661360  0.54735128    -0.08300
C1711       C  0.63535369  0.68947633  0.58662659    -0.02800
C1712       C  0.65715589  0.70823087  0.61556636     0.04000
N1713       N  0.64896073  0.71415589  0.65494306     0.66500
H1714       H  0.70361453  0.73546633  0.62894131     0.15400
H1715       H  0.62845573  0.67241777  0.52466868     0.15100
N1716       N  0.68259355  0.69501598  0.49715878     0.74200
O1717       O  0.65041771  0.70051195  0.68616770    -0.39300
O1718       O  0.64774091  0.73763321  0.65985829    -0.39200
O1719       O  0.68167558  0.67071017  0.48963514    -0.39900
O1720       O  0.68315555  0.71102404  0.46757946    -0.40000
C1721       C  0.66953456  0.52721021  0.05201055    -0.12300
C1722       C  0.64726860  0.53412579  0.04471177     0.04700
C1723       C  0.63904119  0.54720597  0.07638597    -0.07500
C1724       C  0.65317036  0.55306462  0.11479434    -0.08300
C1725       C  0.67539253  0.54591503  0.12241056    -0.02800
C1726       C  0.68333666  0.53254711  0.09047745     0.04000
N1727       N  0.70416165  0.52267946  0.09713181     0.66500
H1728       H  0.67545250  0.51648841  0.02814578     0.15400
H1729       H  0.64711258  0.56380063  0.13844615     0.15100
N1730       N  0.61727931  0.55579794  0.06957740     0.74200
O1731       O  0.69530586  0.49746184  0.11315608    -0.39300
O1732       O  0.72884080  0.53553998  0.07869247    -0.39200
O1733       O  0.59172970  0.54036942  0.08501394    -0.39900
O1734       O  0.62572756  0.58211671  0.05836815    -0.40000
C1735       C  0.63984833  0.51268272  0.37283852    -0.12300
C1736       C  0.64015687  0.51914594  0.33064243     0.04700
C1737       C  0.61437272  0.50090950  0.30713569    -0.07500
C1738       C  0.58864190  0.47886328  0.32666078    -0.08300
C1739       C  0.58770840  0.47419088  0.36942894    -0.02800
C1740       C  0.61407994  0.49060813  0.39228210     0.04000
N1741       N  0.61450462  0.48721980  0.43585910     0.66500
H1742       H  0.65936108  0.52591719  0.39159464     0.15400
H1743       H  0.56879191  0.46606506  0.30829685     0.15100
N1744       N  0.61301634  0.50560624  0.26402877     0.74200
O1745       O  0.62516264  0.47206826  0.45045901    -0.39300
O1746       O  0.61090096  0.50461045  0.45919097    -0.39200
O1747       O  0.61525330  0.48839291  0.23867069    -0.39900
O1748       O  0.60233107  0.52141324  0.25212736    -0.40000
C1749       C  0.77817851  0.63832428  0.42903524    -0.12300
C1750       C  0.78477356  0.64561358  0.38740928     0.04700
C1751       C  0.80559011  0.67522375  0.37615764    -0.07500
C1752       C  0.81642907  0.69751106  0.40611025    -0.08300
C1753       C  0.80780503  0.69043179  0.44717424    -0.02800
C1754       C  0.78987271  0.66046014  0.45909522     0.04000
N1755       N  0.78075879  0.65250519  0.50091007     0.66500
H1756       H  0.76252986  0.61560408  0.43804073     0.15400
H1757       H  0.83056325  0.72055345  0.39703103     0.15100
N1758       N  0.81406525  0.68348568  0.33424617     0.74200
O1759       O  0.75679352  0.65050162  0.51309276    -0.39300
O1760       O  0.79279179  0.64121074  0.52233169    -0.39200
O1761       O  0.80170214  0.69487793  0.31374048    -0.39900
O1762       O  0.83819359  0.68616628  0.32148949    -0.40000
C1763       C  0.62923081  0.65721460  0.28581000    -0.12300
C1764       C  0.61652784  0.65509230  0.24709524     0.04700
C1765       C  0.61941567  0.63688265  0.21685464    -0.07500
C1766       C  0.63578594  0.62263992  0.22516331    -0.08300
C1767       C  0.64997144  0.62611210  0.26312542    -0.02800
C1768       C  0.64611464  0.64354106  0.29396055     0.04000
N1769       N  0.66097849  0.64974460  0.33281707     0.66500
H1770       H  0.62780761  0.67131140  0.30928811     0.15400
H1771       H  0.63783081  0.60920272  0.20124305     0.15100
N1772       N  0.60611169  0.63270002  0.17715315     0.74200
O1773       O  0.68657508  0.67232815  0.33625250    -0.39300
O1774       O  0.64611305  0.63761008  0.36491489    -0.39200
O1775       O  0.62229967  0.64637155  0.14667967    -0.39900
O1776       O  0.58076144  0.61030436  0.17099155    -0.40000
C1777       C  0.80231534  0.54929772  0.33475653    -0.12300
C1778       C  0.79937735  0.54718988  0.29162697     0.04700
C1779       C  0.81796267  0.53991075  0.26901942    -0.07500
C1780       C  0.84035426  0.53730115  0.28926562    -0.08300
C1781       C  0.84489935  0.54177801  0.33212941    -0.02800
C1782       C  0.82453608  0.54648744  0.35507715     0.04000
N1783       N  0.82678070  0.54995847  0.39874382     0.66500
H1784       H  0.78783098  0.55425801  0.35290183     0.15400
H1785       H  0.85517053  0.53305601  0.27075761     0.15100
N1786       N  0.81622027  0.53761552  0.22519041     0.74200
O1787       O  0.83941524  0.57583293  0.41394956    -0.39300
O1788       O  0.80991265  0.52803982  0.42112105    -0.39200
O1789       O  0.83411431  0.55966246  0.20375091    -0.39900
O1790       O  0.80244171  0.51216667  0.20875614    -0.40000
C1791       C  0.19138833  0.74205894  0.16655080    -0.12300
C1792       C  0.19375584  0.74487036  0.20964639     0.04700
C1793       C  0.17370081  0.72036950  0.23385522    -0.07500
C1794       C  0.15052313  0.69500273  0.21480216    -0.08300
C1795       C  0.14681444  0.69306255  0.17162296    -0.02800
C1796       C  0.16857324  0.71657522  0.14746628     0.04000
N1797       N  0.16734703  0.71573566  0.10352890     0.66500
H1798       H  0.20700426  0.76027617  0.14727721     0.15400
H1799       H  0.13464621  0.67715071  0.23430319     0.15100
N1800       N  0.17519517  0.72145248  0.27780321     0.74200
O1801       O  0.15713057  0.72993749  0.08481453    -0.39300
O1802       O  0.18261851  0.70712448  0.08392650    -0.39200
O1803       O  0.15876417  0.72849217  0.29764397    -0.39900
O1804       O  0.18665792  0.70831064  0.29626546    -0.40000
C1805       C  0.99969967  0.53844859  0.29394115    -0.12300
C1806       C  0.97052846  0.52466696  0.27898840     0.04700
C1807       C  0.96522648  0.52070100  0.23639923    -0.07500
C1808       C  0.98927370  0.53296020  0.20932762    -0.08300
C1809       C  0.01838280  0.54991104  0.22432148    -0.02800
C1810       C  0.02370359  0.55155849  0.26692669     0.04000
N1811       N  0.05313897  0.56744664  0.28325262     0.66500
H1812       H  0.00391056  0.54131623  0.32676682     0.15400
H1813       H  0.98502765  0.53127152  0.17647158     0.15100
N1814       N  0.93571470  0.50538457  0.22021948     0.74200
O1815       O  0.06272642  0.59325369  0.29773494    -0.39300
O1816       O  0.06610940  0.55324941  0.29257942    -0.39200
O1817       O  0.92453474  0.52022844  0.20621184    -0.39900
O1818       O  0.92411413  0.47819413  0.21087438    -0.40000
C1819       C  0.85370927  0.78611039  0.99817108    -0.12300
C1820       C  0.85851294  0.79099834  0.04080150     0.04700
C1821       C  0.84203584  0.80144955  0.06251384    -0.07500
C1822       C  0.81961106  0.80412745  0.04221606    -0.08300
C1823       C  0.81347221  0.79724726  0.00003571    -0.02800
C1824       C  0.83182550  0.78937621  0.97776650     0.04000
N1825       N  0.82797238  0.78346089  0.93464300     0.66500
H1826       H  0.86666931  0.77896198  0.98041359     0.15400
H1827       H  0.80625970  0.81074409  0.06003394     0.15100
N1828       N  0.84650231  0.80786443  0.10553123     0.74200
O1829       O  0.84404017  0.80406964  0.90993352    -0.39300
O1830       O  0.81462541  0.75683260  0.92215457    -0.39200
O1831       O  0.86125807  0.83463801  0.11720402    -0.39900
O1832       O  0.83027151  0.78801793  0.13111022    -0.40000
C1833       C  0.04350559  0.83895638  0.02620749    -0.12300
C1834       C  0.01997466  0.82039680  0.99971756     0.04700
C1835       C  0.02344559  0.82723515  0.95706775    -0.07500
C1836       C  0.05000933  0.85118626  0.94202242    -0.08300
C1837       C  0.07405471  0.86853476  0.96813823    -0.02800
C1838       C  0.07034885  0.86255373  0.01095012     0.04000
N1839       N  0.09347258  0.88022318  0.03954778     0.66500
H1840       H  0.04162130  0.83450418  0.05899417     0.15400
H1841       H  0.05230872  0.85525527  0.90913308     0.15100
N1842       N  0.00072139  0.80955568  0.92805159     0.74200
O1843       O  0.09308876  0.90153586  0.05770026    -0.39300
O1844       O  0.10912515  0.87012869  0.05409694    -0.39200
O1845       O  0.98354841  0.81843489  0.91557512    -0.39900
O1846       O  0.00257180  0.78974636  0.90789497    -0.40000
C1847       C  0.82523974  0.66917342  0.20935585    -0.12300
C1848       C  0.80757500  0.64339083  0.18593247     0.04700
C1849       C  0.81299165  0.64428521  0.14314230    -0.07500
C1850       C  0.83532556  0.67052693  0.12502264    -0.08300
C1851       C  0.85290219  0.69635124  0.14839474    -0.02800
C1852       C  0.84774437  0.69533314  0.19125900     0.04000
N1853       N  0.86587716  0.72008026  0.21735147     0.66500
H1854       H  0.82192795  0.66897870  0.24229431     0.15400
H1855       H  0.83862169  0.67077070  0.09210554     0.15100
N1856       N  0.79555220  0.61916653  0.11722516     0.74200
O1857       O  0.85622834  0.73679128  0.22930065    -0.39300
O1858       O  0.88718045  0.72049530  0.23642685    -0.39200
O1859       O  0.77395638  0.61773971  0.09763527    -0.39900
O1860       O  0.80568299  0.60257365  0.10669239    -0.40000
C1861       C  0.02039315  0.71627536  0.11605036    -0.12300
C1862       C  0.01168478  0.71711240  0.07541485     0.04700
C1863       C  0.02041275  0.70369533  0.04421807    -0.07500
C1864       C  0.03627950  0.68934076  0.05435930    -0.08300
C1865       C  0.04346359  0.68702471  0.09519464    -0.02800
C1866       C  0.03584681  0.70140113  0.12623298     0.04000
N1867       N  0.04312890  0.70087001  0.16852108     0.66500
H1868       H  0.01438333  0.72643440  0.14057171     0.15400
H1869       H  0.04160524  0.67851746  0.02996929     0.15100
N1870       N  0.01214141  0.70284707  0.00207493     0.74200
O1871       O  0.06645603  0.72258224  0.18302958    -0.39300
O1872       O  0.02319172  0.68310214  0.19289584    -0.39200
O1873       O  0.03130857  0.72025406  0.97658337    -0.39900
O1874       O  0.98878031  0.68041926  0.98896287    -0.40000
C1875       C  0.84459971  0.54797385  0.58933696    -0.12300
C1876       C  0.86087503  0.54802888  0.62408644     0.04700
C1877       C  0.88493569  0.54306596  0.61773314    -0.07500
C1878       C  0.89093056  0.53661198  0.57806538    -0.08300
C1879       C  0.87406390  0.53583731  0.54382760    -0.02800
C1880       C  0.85101885  0.54214377  0.54972840     0.04000
N1881       N  0.83259381  0.54090656  0.51640570     0.66500
H1882       H  0.82620058  0.55199817  0.59269297     0.15400
H1883       H  0.90914527  0.53236469  0.57395590     0.15100
N1884       N  0.90398069  0.54507245  0.65068129     0.74200
O1885       O  0.80929086  0.51655990  0.50864876    -0.39300
O1886       O  0.83492441  0.56484559  0.50325691    -0.39200
O1887       O  0.90138779  0.52147596  0.66565558    -0.39900
O1888       O  0.92770581  0.56940322  0.65663567    -0.40000
C1889       C  0.71203923  0.54078980  0.77252665    -0.12300
C1890       C  0.73684500  0.54785572  0.79710010     0.04700
C1891       C  0.73397062  0.54928863  0.84038536    -0.07500
C1892       C  0.70775921  0.54610865  0.85763126    -0.08300
C1893       C  0.68383347  0.54158315  0.83281034    -0.02800
C1894       C  0.68580919  0.53774225  0.78973225     0.04000
N1895       N  0.66161075  0.53115275  0.76268564     0.66500
H1896       H  0.71344809  0.53905239  0.73943770     0.15400
H1897       H  0.70676372  0.54860957  0.89063230     0.15100
N1898       N  0.75749245  0.55396353  0.86755623     0.74200
O1899       O  0.66181712  0.55198205  0.74242885    -0.39300
O1900       O  0.64467814  0.50456622  0.75144501    -0.39200
O1901       O  0.77379251  0.57948840  0.88285241    -0.39900
O1902       O  0.75685657  0.53170405  0.88420002    -0.40000
C1903       C  0.82881946  0.66699157  0.70997590    -0.12300
C1904       C  0.82582728  0.64271224  0.68689866     0.04700
C1905       C  0.82645736  0.64476319  0.64341754    -0.07500
C1906       C  0.82991624  0.67057083  0.62428422    -0.08300
C1907       C  0.83302001  0.69488256  0.64741996    -0.02800
C1908       C  0.83222254  0.69274768  0.69084364     0.04000
N1909       N  0.83305559  0.71571455  0.71607323     0.66500
H1910       H  0.82784409  0.66574988  0.74328871     0.15400
H1911       H  0.83088555  0.67184295  0.59096706     0.15100
N1912       N  0.82516659  0.62159259  0.61812085     0.74200
O1913       O  0.80892151  0.71344615  0.72797746    -0.39300
O1914       O  0.85686035  0.73364021  0.73425223    -0.39200
O1915       O  0.80154333  0.60461937  0.59885322    -0.39900
O1916       O  0.84905831  0.62284007  0.60730794    -0.40000
C1917       C  0.84837462  0.63914140  0.93014182    -0.12300
C1918       C  0.85174474  0.64720439  0.88861789     0.04700
C1919       C  0.86293616  0.67726283  0.87757263    -0.07500
C1920       C  0.87485551  0.69916092  0.90800296    -0.08300
C1921       C  0.87421106  0.69121441  0.94923315    -0.02800
C1922       C  0.85894275  0.66092325  0.96066404     0.04000
N1923       N  0.85641487  0.65194027  0.00272475     0.66500
H1924       H  0.83903832  0.61597084  0.93881900     0.15400
H1925       H  0.88595420  0.72244985  0.89923993     0.15100
N1926       N  0.86484754  0.68616702  0.83554660     0.74200
O1927       O  0.83254317  0.64451999  0.02171955    -0.39300
O1928       O  0.87394875  0.64396581  0.01671157    -0.39200
O1929       O  0.84623592  0.69283534  0.82194554    -0.39900
O1930       O  0.88844368  0.69397241  0.81559085    -0.40000
C1931       C  0.96668770  0.78227216  0.24558258    -0.12300
C1932       C  0.98386231  0.79430821  0.20983511     0.04700
C1933       C  0.01471318  0.81329426  0.21384525    -0.07500
C1934       C  0.02771298  0.81953038  0.25292523    -0.08300
C1935       C  0.01063129  0.80731868  0.28889445    -0.02800
C1936       C  0.97959379  0.78850943  0.28474081     0.04000
N1937       N  0.96048894  0.77634898  0.31961200     0.66500
H1938       H  0.94285408  0.76783278  0.24326700     0.15400
H1939       H  0.05151882  0.83432695  0.25486615     0.15100
N1940       N  0.03304122  0.82768706  0.17890219     0.74200
O1941       O  0.94439860  0.78713116  0.32966381    -0.39300
O1942       O  0.95323859  0.75043903  0.33151170    -0.39200
O1943       O  0.03987978  0.85411938  0.17060591    -0.39900
O1944       O  0.04760665  0.81688207  0.16271143    -0.40000
C1945       C  0.13822840  0.93088888  0.50091062    -0.12300
C1946       C  0.13650896  0.92912580  0.45774573     0.04700
C1947       C  0.15601552  0.95450549  0.43462292    -0.07500
C1948       C  0.17805035  0.97998203  0.45480240    -0.08300
C1949       C  0.18117964  0.98098722  0.49800961    -0.02800
C1950       C  0.15997180  0.95640554  0.52109444     0.04000
N1951       N  0.16087160  0.95615567  0.56497110     0.66500
H1952       H  0.12294522  0.91189804  0.51933760     0.15400
H1953       H  0.19363213  0.99866085  0.43618227     0.15100
N1954       N  0.15535356  0.95418246  0.39065052     0.74200
O1955       O  0.14583593  0.96479680  0.58509135    -0.39300
O1956       O  0.16988518  0.94054067  0.58264913    -0.39200
O1957       O  0.14585837  0.96905972  0.37203487    -0.39900
O1958       O  0.17061407  0.94550518  0.37115792    -0.40000
C1959       C  0.97569218  0.80261755  0.54267277    -0.12300
C1960       C  0.97508949  0.79663512  0.50019556     0.04700
C1961       C  0.94918703  0.78968658  0.47785713    -0.07500
C1962       C  0.92413016  0.78651924  0.49842413    -0.08300
C1963       C  0.92397706  0.79036728  0.54131661    -0.02800
C1964       C  0.95062162  0.79980227  0.56323083     0.04000
N1965       N  0.95220948  0.80467892  0.60665143     0.66500
H1966       H  0.99544940  0.80842144  0.56052783     0.15400
H1967       H  0.90421329  0.78012766  0.48059871     0.15100
N1968       N  0.94732706  0.78454696  0.43452225     0.74200
O1969       O  0.94690222  0.78345409  0.63060417    -0.39300
O1970       O  0.96602519  0.83103047  0.62017574    -0.39200
O1971       O  0.93274155  0.75822155  0.42104305    -0.39900
O1972       O  0.95341838  0.80598661  0.41060619    -0.40000
C1973       C  0.15576766  0.85595646  0.31736201    -0.12300
C1974       C  0.14323337  0.83997617  0.35392660     0.04700
C1975       C  0.15387887  0.82147053  0.36892420    -0.07500
C1976       C  0.17607831  0.81923959  0.34753511    -0.08300
C1977       C  0.18858976  0.83518839  0.31102120    -0.02800
C1978       C  0.17814669  0.85387834  0.29612269     0.04000
N1979       N  0.19069319  0.87192816  0.26041232     0.66500
H1980       H  0.14850324  0.87066071  0.30516895     0.15400
H1981       H  0.18351767  0.80472522  0.35991815     0.15100
N1982       N  0.14288401  0.80496308  0.40617719     0.74200
O1983       O  0.17776428  0.86289955  0.22617330    -0.39300
O1984       O  0.20979448  0.89910970  0.26493160    -0.39200
O1985       O  0.12380206  0.77758379  0.40431904    -0.39900
O1986       O  0.15769726  0.81538328  0.43878544    -0.40000
C1987       C  0.99182551  0.69033086  0.38615627    -0.12300
C1988       C  0.98292768  0.70206098  0.41813142     0.04700
C1989       C  0.95880244  0.68247340  0.44326264    -0.07500
C1990       C  0.94462933  0.65142556  0.43693967    -0.08300
C1991       C  0.95392182  0.63946496  0.40521784    -0.02800
C1992       C  0.97792363  0.65957323  0.37963340     0.04000
N1993       N  0.98993683  0.64920154  0.34838975     0.66500
H1994       H  0.01085816  0.70506473  0.36740905     0.15400
H1995       H  0.92610011  0.63673334  0.45643087     0.15100
N1996       N  0.94803340  0.69406645  0.47452082     0.74200
O1997       O  0.98280543  0.64929212  0.31129052    -0.39300
O1998       O  0.01233919  0.64678971  0.35648876    -0.39200
O1999       O  0.93543847  0.70848273  0.46440073    -0.39900
O2000       O  0.95509635  0.69393114  0.51162678    -0.40000
C2001       C  0.12092720  0.65686633  0.88397223    -0.12300
C2002       C  0.13088035  0.68731413  0.88227494     0.04700
C2003       C  0.13424360  0.70284049  0.91968672    -0.07500
C2004       C  0.12766369  0.68765471  0.95743553    -0.08300
C2005       C  0.11786926  0.65706342  0.95918052    -0.02800
C2006       C  0.11465475  0.64176076  0.92149932     0.04000
N2007       N  0.10407840  0.61056100  0.92006702     0.66500
H2008       H  0.11836051  0.64455566  0.85581047     0.15400
H2009       H  0.13022756  0.70000978  0.98553196     0.15100
N2010       N  0.14342595  0.73381183  0.92009789     0.74200
O2011       O  0.07790005  0.59342265  0.90780479    -0.39300
O2012       O  0.12261911  0.60167475  0.91895052    -0.39200
O2013       O  0.12397667  0.74144666  0.92269137    -0.39900
O2014       O  0.17006525  0.75257743  0.92864418    -0.40000
C2015       C  0.25168150  0.81363241  0.66679869    -0.12300
C2016       C  0.25213198  0.80803735  0.70913742     0.04700
C2017       C  0.27929896  0.82376045  0.73042409    -0.07500
C2018       C  0.30455250  0.84586172  0.70999874    -0.08300
C2019       C  0.30348641  0.85307611  0.66843745    -0.02800
C2020       C  0.27679719  0.83586033  0.64647551     0.04000
N2021       N  0.27402915  0.84162903  0.60424042     0.66500
H2022       H  0.23121471  0.80144296  0.64946245     0.15400
H2023       H  0.32483237  0.85852279  0.72754426     0.15100
N2024       N  0.28120032  0.81953484  0.77349232     0.74200
O2025       O  0.26550809  0.85980919  0.59535107    -0.39300
O2026       O  0.27215641  0.82316539  0.57744365    -0.39200
O2027       O  0.29438732  0.80611027  0.78551000    -0.39900
O2028       O  0.27649158  0.83517289  0.79878924    -0.40000
C2029       C  0.01605053  0.64338012  0.78323025    -0.12300
C2030       C  0.02627072  0.65102126  0.74255856     0.04700
C2031       C  0.00465572  0.64026588  0.71055160    -0.07500
C2032       C  0.97426012  0.62584466  0.71995197    -0.08300
C2033       C  0.96411093  0.62012843  0.76067246    -0.02800
C2034       C  0.98550327  0.62759210  0.79242933     0.04000
N2035       N  0.97674502  0.61894751  0.83419677     0.66500
H2036       H  0.03181795  0.65003750  0.80833661     0.15400
H2037       H  0.95856496  0.61994172  0.69493585     0.15100
N2038       N  0.01286066  0.64363711  0.66806294     0.74200
O2039       O  0.97173297  0.59372858  0.84621688    -0.39300
O2040       O  0.98045822  0.63842385  0.86052540    -0.39200
O2041       O  0.01204259  0.62195443  0.64923195    -0.39900
O2042       O  0.01303843  0.66435265  0.64756385    -0.40000
C2043       C  0.13497422  0.80295873  0.54419760    -0.12300
C2044       C  0.11559615  0.81294273  0.55641877     0.04700
C2045       C  0.10981833  0.81399485  0.59853700    -0.07500
C2046       C  0.12118467  0.80248343  0.62729279    -0.08300
C2047       C  0.13770527  0.78939510  0.61447804    -0.02800
C2048       C  0.14592926  0.79094212  0.57296074     0.04000
N2049       N  0.16479021  0.77993889  0.55955266     0.66500
H2050       H  0.13969254  0.80222442  0.51195349     0.15400
H2051       H  0.11517765  0.80174439  0.65943688     0.15100
N2052       N  0.09133307  0.82533576  0.61236785     0.74200
O2053       O  0.15358166  0.75499306  0.54173886    -0.39300
O2054       O  0.19242228  0.79767514  0.55707716    -0.39200
O2055       O  0.06443507  0.80740739  0.62079874    -0.39900
O2056       O  0.10324608  0.85186958  0.62502917    -0.40000
C2057       C  0.14347576  0.82401025  0.80155418    -0.12300
C2058       C  0.16586288  0.81799240  0.81373365     0.04700
C2059       C  0.18517205  0.83549011  0.84597886    -0.07500
C2060       C  0.18092923  0.85700199  0.86607222    -0.08300
C2061       C  0.15835836  0.86278655  0.85434170    -0.02800
C2062       C  0.13980960  0.84624465  0.82090703     0.04000
N2063       N  0.11715472  0.85162457  0.80582885     0.66500
H2064       H  0.12861076  0.81142845  0.77660759     0.15400
H2065       H  0.19606009  0.86976677  0.89069359     0.15100
N2066       N  0.21028112  0.83300078  0.85763794     0.74200
O2067       O  0.12304989  0.86955152  0.77633576    -0.39300
O2068       O  0.09036383  0.83360972  0.81469487    -0.39200
O2069       O  0.23554322  0.85166990  0.84372314    -0.39900
O2070       O  0.20857747  0.81796926  0.88907121    -0.40000
C2071       C  0.30649819  0.47768510  0.20673843    -0.12300
C2072       C  0.30552895  0.46980751  0.16499636     0.04700
C2073       C  0.27896053  0.46059874  0.14302696    -0.07500
C2074       C  0.25359820  0.45667008  0.16359221    -0.08300
C2075       C  0.25383002  0.46207938  0.20612000    -0.02800
C2076       C  0.28116627  0.47420269  0.22724378     0.04000
N2077       N  0.28340637  0.48149023  0.26997010     0.66500
H2078       H  0.32680668  0.48547003  0.22420980     0.15400
H2079       H  0.23323535  0.44844648  0.14608970     0.15100
N2080       N  0.27679046  0.45397662  0.10013845     0.74200
O2081       O  0.28169034  0.46278881  0.29620367    -0.39300
O2082       O  0.29427307  0.50839438  0.28045807    -0.39200
O2083       O  0.26424641  0.42714915  0.08858695    -0.39900
O2084       O  0.27996160  0.47378585  0.07488941    -0.40000
C2085       C  0.12682730  0.49303854  0.12816637    -0.12300
C2086       C  0.12264302  0.48880583  0.17106430     0.04700
C2087       C  0.11837862  0.50946590  0.19407502    -0.07500
C2088       C  0.11577849  0.53181980  0.17372986    -0.08300
C2089       C  0.11741770  0.53431981  0.13055844    -0.02800
C2090       C  0.12409730  0.51532830  0.10786393     0.04000
N2091       N  0.12503413  0.51618637  0.06393356     0.66500
H2092       H  0.13058076  0.47783765  0.10968792     0.15400
H2093       H  0.11116614  0.54660583  0.19182933     0.15100
N2094       N  0.11487244  0.50721077  0.23773975     0.74200
O2095       O  0.14976523  0.52700071  0.04582718    -0.39300
O2096       O  0.10146948  0.50030467  0.04390181    -0.39200
O2097       O  0.13667372  0.52422520  0.26015516    -0.39900
O2098       O  0.08905013  0.49443519  0.25287994    -0.40000
C2099       C  0.15411485  0.33671561  0.29187049    -0.12300
C2100       C  0.16609762  0.36382782  0.31356573     0.04700
C2101       C  0.17390804  0.36396568  0.35542135    -0.07500
C2102       C  0.17005420  0.33785466  0.37400324    -0.08300
C2103       C  0.15805423  0.31073628  0.35241774    -0.02800
C2104       C  0.14995278  0.31046182  0.31065478     0.04000
N2105       N  0.13762428  0.28387684  0.28647857     0.66500
H2106       H  0.14787554  0.33573931  0.25984090     0.15400
H2107       H  0.17616604  0.33888536  0.40610101     0.15100
N2108       N  0.18486703  0.39010749  0.38031628     0.74200
O2109       O  0.10979993  0.26838537  0.28239394    -0.39300
O2110       O  0.15418047  0.27993792  0.26198665    -0.39200
O2111       O  0.16709410  0.39319506  0.40343334    -0.39900
O2112       O  0.21244718  0.40594786  0.38650012    -0.40000
C2113       C  0.15289629  0.21350394  0.93732456    -0.12300
C2114       C  0.13444626  0.21898507  0.96281738     0.04700
C2115       C  0.13903737  0.22023530  0.00596639    -0.07500
C2116       C  0.16245239  0.21743378  0.02233836    -0.08300
C2117       C  0.18236576  0.21417950  0.99669576    -0.02800
C2118       C  0.17685991  0.21152130  0.95355245     0.04000
N2119       N  0.19601019  0.20807314  0.92532651     0.66500
H2120       H  0.14985202  0.21254669  0.90423523     0.15400
H2121       H  0.16594507  0.21949059  0.05535159     0.15100
N2122       N  0.12059456  0.22509789  0.03378663     0.74200
O2123       O  0.18884618  0.18238060  0.91246584    -0.39300
O2124       O  0.21554865  0.23057452  0.90616909    -0.39200
O2125       O  0.10055855  0.20328389  0.05344928    -0.39900
O2126       O  0.12918057  0.25118411  0.04639574    -0.40000
C2127       C  0.97467784  0.17800382  0.04174474    -0.12300
C2128       C  0.97331544  0.18575607  0.00054728     0.04700
C2129       C  0.94661077  0.16855930  0.97858634    -0.07500
C2130       C  0.92165464  0.14597513  0.99876606    -0.08300
C2131       C  0.92229785  0.13972464  0.04087103    -0.02800
C2132       C  0.94968009  0.15518659  0.06187158     0.04000
N2133       N  0.95227230  0.14934174  0.10415610     0.66500
H2134       H  0.99507467  0.19050958  0.05910320     0.15400
H2135       H  0.90113290  0.13402882  0.98150406     0.15100
N2136       N  0.94352482  0.17515071  0.93678278     0.74200
O2137       O  0.96057146  0.13098654  0.11299946    -0.39300
O2138       O  0.95362656  0.16739353  0.13131087    -0.39200
O2139       O  0.94457610  0.15913288  0.90832224    -0.39900
O2140       O  0.93324586  0.19208071  0.92923561    -0.40000
C2141       C  0.12491869  0.33406031  0.12695806    -0.12300
C2142       C  0.13693879  0.36334791  0.11267775     0.04700
C2143       C  0.13958323  0.36909795  0.07007961    -0.07500
C2144       C  0.12872652  0.34528866  0.04258564    -0.08300
C2145       C  0.11393048  0.31589686  0.05705330    -0.02800
C2146       C  0.11265426  0.31022448  0.09950847     0.04000
N2147       N  0.09765556  0.28053096  0.11530151     0.66500
H2148       H  0.12263956  0.32947310  0.15973879     0.15400
H2149       H  0.12962207  0.34974513  0.00987346     0.15100
N2150       N  0.15185947  0.39865138  0.05426490     0.74200
O2151       O  0.11275476  0.26934634  0.12823274    -0.39300
O2152       O  0.07071812  0.26882759  0.12566944    -0.39200
O2153       O  0.17854675  0.41228265  0.04235964    -0.39900
O2154       O  0.13453224  0.40741108  0.04200018    -0.40000
C2155       C  0.14630482  0.31071518  0.81428179    -0.12300
C2156       C  0.14066203  0.31345699  0.85603723     0.04700
C2157       C  0.15742375  0.34168011  0.87492957    -0.07500
C2158       C  0.17909110  0.36591125  0.85240285    -0.08300
C2159       C  0.18505213  0.36317976  0.81079512    -0.02800
C2160       C  0.16809575  0.33498349  0.79171978     0.04000
N2161       N  0.17218289  0.33044365  0.74936548     0.66500
H2162       H  0.13362797  0.28949361  0.79869041     0.15400
H2163       H  0.19161678  0.38708407  0.86814368     0.15100
N2164       N  0.15344902  0.34621501  0.91731529     0.74200
O2165       O  0.18985513  0.32139308  0.74002402    -0.39300
O2166       O  0.15323411  0.32823293  0.72327423    -0.39200
O2167       O  0.16955055  0.34365100  0.94411447    -0.39900
O2168       O  0.13933405  0.35929347  0.92660366    -0.40000
C2169       C  0.10811880  0.47968818  0.42596560    -0.12300
C2170       C  0.11780408  0.47146212  0.46139786     0.04700
C2171       C  0.13424063  0.45680264  0.45631475    -0.07500
C2172       C  0.14076275  0.45105981  0.41676627    -0.08300
C2173       C  0.13147925  0.45971256  0.38140246    -0.02800
C2174       C  0.11479381  0.47408991  0.38641596     0.04000
N2175       N  0.10574515  0.48469240  0.35202006     0.66500
H2176       H  0.09539014  0.49091054  0.42875312     0.15400
H2177       H  0.15366474  0.44002572  0.41394490     0.15100
N2178       N  0.14631265  0.44926638  0.49051647     0.74200
O2179       O  0.07981041  0.46893206  0.33797914    -0.39300
O2180       O  0.12000834  0.51213743  0.34377999    -0.39200
O2181       O  0.13336824  0.42258829  0.50269364    -0.39900
O2182       O  0.17349974  0.46593282  0.49861576    -0.40000
C2183       C  0.12397899  0.61513858  0.61429450    -0.12300
C2184       C  0.10799500  0.58833194  0.63634109     0.04700
C2185       C  0.09971285  0.59009906  0.67752191    -0.07500
C2186       C  0.10614063  0.61767076  0.69456292    -0.08300
C2187       C  0.12053614  0.64415203  0.67164541    -0.02800
C2188       C  0.13014874  0.64267081  0.63128270     0.04000
N2189       N  0.14640065  0.66895389  0.60699587     0.66500
H2190       H  0.13117359  0.61475695  0.58309413     0.15400
H2191       H  0.09840778  0.61803213  0.72544316     0.15100
N2192       N  0.08451541  0.56413528  0.70270902     0.74200
O2193       O  0.17441953  0.68238946  0.60741905    -0.39300
O2194       O  0.13331733  0.67433454  0.57849534    -0.39200
O2195       O  0.09914903  0.55820651  0.72808063    -0.39900
O2196       O  0.05666663  0.55161034  0.70649729    -0.40000
C2197       C  0.14934669  0.46682324  0.71433809    -0.12300
C2198       C  0.14404270  0.46178925  0.67172545     0.04700
C2199       C  0.16431480  0.45748244  0.64798118    -0.07500
C2200       C  0.18767308  0.45624444  0.66701642    -0.08300
C2201       C  0.19160541  0.45888217  0.70983958    -0.02800
C2202       C  0.17290788  0.46557200  0.73348149     0.04000
N2203       N  0.17617051  0.46926030  0.77709746     0.66500
H2204       H  0.13445888  0.47066786  0.73331426     0.15400
H2205       H  0.20215460  0.45179470  0.64801115     0.15100
N2206       N  0.16077072  0.45254501  0.60469064     0.74200
O2207       O  0.19004616  0.49524518  0.79188517    -0.39300
O2208       O  0.15922408  0.44783965  0.80017967    -0.39200
O2209       O  0.17795919  0.47333936  0.58098948    -0.39900
O2210       O  0.14710624  0.42615035  0.59129784    -0.40000
C2211       C  0.02071421  0.52144663  0.49367353    -0.12300
C2212       C  0.01658499  0.49935016  0.52230893     0.04700
C2213       C  0.98738091  0.47520094  0.52821829    -0.07500
C2214       C  0.96333819  0.47442541  0.50737204    -0.08300
C2215       C  0.96746887  0.49675511  0.47922378    -0.02800
C2216       C  0.99676647  0.52033873  0.47220806     0.04000
N2217       N  0.00268770  0.54406295  0.44455438     0.66500
H2218       H  0.04274597  0.54026056  0.48834486     0.15400
H2219       H  0.94125994  0.45562163  0.51250423     0.15100
N2220       N  0.98167786  0.45045268  0.55361469     0.74200
O2221       O  0.00286254  0.56693762  0.45811611    -0.39300
O2222       O  0.01436310  0.54518543  0.41004552    -0.39200
O2223       O  0.96578492  0.44516215  0.58526691    -0.39900
O2224       O  0.98513830  0.42993840  0.53871580    -0.40000
C2225       C  0.87831264  0.47867190  0.83551688    -0.12300
C2226       C  0.87399432  0.47436068  0.87832718     0.04700
C2227       C  0.86434352  0.49152887  0.90009948    -0.07500
C2228       C  0.86178618  0.51399612  0.87966027    -0.08300
C2229       C  0.86802917  0.51960526  0.83729116    -0.02800
C2230       C  0.87513043  0.50063084  0.81491967     0.04000
N2231       N  0.88072195  0.50415884  0.77163601     0.66500
H2232       H  0.88492877  0.46525961  0.81776497     0.15400
H2233       H  0.85570386  0.52776956  0.89753469     0.15100
N2234       N  0.85843313  0.48760371  0.94327219     0.74200
O2235       O  0.90717776  0.51844168  0.75886981    -0.39300
O2236       O  0.86031563  0.48746418  0.74704791    -0.39200
O2237       O  0.87837852  0.50451200  0.96826895    -0.39900
O2238       O  0.83185172  0.47291106  0.95545055    -0.40000
C2239       C  0.82338790  0.29050468  0.86024348    -0.12300
C2240       C  0.84401755  0.31412636  0.83567480     0.04700
C2241       C  0.83947615  0.31208010  0.79235168    -0.07500
C2242       C  0.81656939  0.28589122  0.77472627    -0.08300
C2243       C  0.79788731  0.26135157  0.79919848    -0.02800
C2244       C  0.80057136  0.26435163  0.84251125     0.04000
N2245       N  0.78057737  0.24082917  0.86904213     0.66500
H2246       H  0.82579562  0.29158204  0.89344116     0.15400
H2247       H  0.81444122  0.28423543  0.74149302     0.15100
N2248       N  0.85825171  0.33599550  0.76546067     0.74200
O2249       O  0.78831238  0.22334522  0.88398263    -0.39300
O2250       O  0.75893694  0.24187102  0.88476036    -0.39200
O2251       O  0.87792379  0.33430089  0.74486284    -0.39900
O2252       O  0.85023513  0.35419826  0.75448074    -0.40000
C2253       C  0.94491138  0.29961923  0.89025942    -0.12300
C2254       C  0.94406151  0.31815237  0.92145443     0.04700
C2255       C  0.95888108  0.32052211  0.95872369    -0.07500
C2256       C  0.97513197  0.30583989  0.96325640    -0.08300
C2257       C  0.97765944  0.28875788  0.93115652    -0.02800
C2258       C  0.96142897  0.28506589  0.89468038     0.04000
N2259       N  0.96167889  0.26707474  0.86154905     0.66500
H2260       H  0.93346741  0.29723533  0.86141699     0.15400
H2261       H  0.98719340  0.30932693  0.99180303     0.15100
N2262       N  0.96036314  0.34013500  0.99076544     0.74200
O2263       O  0.94082886  0.24043048  0.85860047    -0.39300
O2264       O  0.97813013  0.27945984  0.83077955    -0.39200
O2265       O  0.94602423  0.32930006  0.02364839    -0.39900
O2266       O  0.98113514  0.36692317  0.99038050    -0.40000
C2267       C  0.96721784  0.46076754  0.75314398    -0.12300
C2268       C  0.97462817  0.45501979  0.79183024     0.04700
C2269       C  0.00384918  0.46209356  0.80056500    -0.07500
C2270       C  0.02451753  0.47155334  0.76882159    -0.08300
C2271       C  0.01632673  0.47414328  0.72859801    -0.02800
C2272       C  0.98807867  0.47100120  0.72146921     0.04000
N2273       N  0.97905007  0.47521633  0.68178347     0.66500
H2274       H  0.94468920  0.45570822  0.74692354     0.15400
H2275       H  0.04637003  0.47472363  0.77511541     0.15100
N2276       N  0.01192441  0.45665766  0.84028946     0.74200
O2277       O  0.95745533  0.45328308  0.66446252    -0.39300
O2278       O  0.98564320  0.50119418  0.67113455    -0.39200
O2279       O  0.01318019  0.43330173  0.84626357    -0.39900
O2280       O  0.02395000  0.47777738  0.86583319    -0.40000
C2281       C  0.99502004  0.49018800  0.96861189    -0.12300
C2282       C  0.96724735  0.47971712  0.98773469     0.04700
C2283       C  0.96664595  0.49214232  0.02630277    -0.07500
C2284       C  0.99312507  0.51418635  0.04442974    -0.08300
C2285       C  0.02091705  0.52470956  0.02528469    -0.02800
C2286       C  0.02151624  0.51216850  0.98671024     0.04000
N2287       N  0.04862227  0.52132980  0.96495116     0.66500
H2288       H  0.99641614  0.48124266  0.93907861     0.15400
H2289       H  0.99169929  0.52317447  0.07392299     0.15100
N2290       N  0.93941745  0.48298021  0.04767419     0.74200
O2291       O  0.06243152  0.50747418  0.97086407    -0.39300
O2292       O  0.05356036  0.53629490  0.93239342    -0.39200
O2293       O  0.93205391  0.46451524  0.07678070    -0.39900
O2294       O  0.92685082  0.49826400  0.04422880    -0.40000
C2295       C  0.01074600  0.21769197  0.71570862    -0.12300
C2296       C  0.97970854  0.19974020  0.71456425     0.04700
C2297       C  0.96395695  0.19137806  0.75244365    -0.07500
C2298       C  0.97939976  0.19991985  0.78985402    -0.08300
C2299       C  0.01047504  0.21700728  0.79091182    -0.02800
C2300       C  0.02614396  0.22648865  0.75312935     0.04000
N2301       N  0.05760149  0.24599599  0.75193309     0.66500
H2302       H  0.02335516  0.22492641  0.68730490     0.15400
H2303       H  0.96686266  0.19279820  0.81833286     0.15100
N2304       N  0.93223909  0.17485409  0.75384428     0.74200
O2305       O  0.07425706  0.23534743  0.74477797    -0.39300
O2306       O  0.06778146  0.27360113  0.74753503    -0.39200
O2307       O  0.91922386  0.14762014  0.76337939    -0.39900
O2308       O  0.91816783  0.18875141  0.75593536    -0.40000
C2309       C  0.83911634  0.05056340  0.56780396    -0.12300
C2310       C  0.85771033  0.07483452  0.54285620     0.04700
C2311       C  0.85358844  0.07205767  0.49966145    -0.07500
C2312       C  0.82996845  0.04623054  0.48268296    -0.08300
C2313       C  0.80973491  0.02280290  0.50779750    -0.02800
C2314       C  0.81521233  0.02476482  0.55088102     0.04000
N2315       N  0.79636131  0.00124117  0.57824892     0.66500
H2316       H  0.84206831  0.05223465  0.60092459     0.15400
H2317       H  0.82669571  0.04528147  0.44964722     0.15100
N2318       N  0.87285002  0.09551863  0.47245366     0.74200
O2319       O  0.80336308  0.98207911  0.58816295    -0.39300
O2320       O  0.77754910  0.00381042  0.59972973    -0.39200
O2321       O  0.89332962  0.09378536  0.45416726    -0.39900
O2322       O  0.86476661  0.11308743  0.45883180    -0.40000
C2323       C  0.01701358  0.19626610  0.46149662    -0.12300
C2324       C  0.01774058  0.20376135  0.50346052     0.04700
C2325       C  0.04448389  0.21342915  0.52538920    -0.07500
C2326       C  0.07004297  0.21805037  0.50450707    -0.08300
C2327       C  0.06989262  0.21297564  0.46184879    -0.02800
C2328       C  0.04257809  0.20056579  0.44074173     0.04000
N2329       N  0.04063963  0.19397854  0.39775978     0.66500
H2330       H  0.99668235  0.18818613  0.44398947     0.15400
H2331       H  0.09054011  0.22669788  0.52180963     0.15100
N2332       N  0.04682121  0.22048757  0.56826054     0.74200
O2333       O  0.03277079  0.16778938  0.38638846    -0.39300
O2334       O  0.03999351  0.21194170  0.37223188    -0.39200
O2335       O  0.04653365  0.20217194  0.59402020    -0.39900
O2336       O  0.05645180  0.24712999  0.57917180    -0.40000
C2337       C  0.84206500  0.18328703  0.63365522    -0.12300
C2338       C  0.84986597  0.16293817  0.64943704     0.04700
C2339       C  0.83554128  0.14745365  0.68606643    -0.07500
C2340       C  0.81460317  0.15282991  0.70573606    -0.08300
C2341       C  0.80694564  0.17334076  0.69008606    -0.02800
C2342       C  0.82112323  0.18864473  0.65327503     0.04000
N2343       N  0.81511035  0.21016208  0.63530476     0.66500
H2344       H  0.85253949  0.19560433  0.60581003     0.15400
H2345       H  0.80407381  0.14047483  0.73353377     0.15100
N2346       N  0.84151981  0.12585656  0.70385444     0.74200
O2347       O  0.83114684  0.23720510  0.64513966    -0.39300
O2348       O  0.80022437  0.20367383  0.60245227    -0.39200
O2349       O  0.85730230  0.13258071  0.73587684    -0.39900
O2350       O  0.82506411  0.09874671  0.69464195    -0.40000
C2351       C  0.02858244  0.31204808  0.60945063    -0.12300
C2352       C  0.01183250  0.30150826  0.57313989     0.04700
C2353       C  0.01381499  0.32283657  0.54387485    -0.07500
C2354       C  0.03065378  0.35334518  0.55240276    -0.08300
C2355       C  0.04570540  0.36376450  0.58975110    -0.02800
C2356       C  0.04557200  0.34278554  0.61779869     0.04000
N2357       N  0.06314093  0.35228519  0.65440776     0.66500
H2358       H  0.02834200  0.29639085  0.63169634     0.15400
H2359       H  0.03027763  0.36892133  0.53055630     0.15100
N2360       N  0.99719395  0.31413158  0.50638566     0.74200
O2361       O  0.05073601  0.35042706  0.68854927    -0.39300
O2362       O  0.08863577  0.35501527  0.65392645    -0.39200
O2363       O  0.97208635  0.31227022  0.50520945    -0.39900
O2364       O  0.01014721  0.31500789  0.47310701    -0.40000
C2365       C  0.86973477  0.36410618  0.08525683    -0.12300
C2366       C  0.86726308  0.34739012  0.04964782     0.04700
C2367       C  0.85934070  0.31722571  0.05439834    -0.07500
C2368       C  0.85422563  0.30475525  0.09383536    -0.08300
C2369       C  0.85672476  0.32157016  0.12917447    -0.02800
C2370       C  0.86458216  0.35156512  0.12458036     0.04000
N2371       N  0.86586097  0.36921097  0.15916812     0.66500
H2372       H  0.87556896  0.38723159  0.08284856     0.15400
H2373       H  0.84812868  0.28157532  0.09676841     0.15100
N2374       N  0.85603001  0.29872370  0.01983157     0.74200
O2375       O  0.89076907  0.38754513  0.17438207    -0.39300
O2376       O  0.84343215  0.37141014  0.16803960    -0.39200
O2377       O  0.87645146  0.29319293  0.01146745    -0.39900
O2378       O  0.83058805  0.28263435  0.00438638    -0.40000
C2379       C  0.73814889  0.18504039  0.33847000    -0.12300
C2380       C  0.73706454  0.19566756  0.29894787     0.04700
C2381       C  0.70898806  0.18464431  0.28010292    -0.07500
C2382       C  0.68329701  0.16261091  0.29996665    -0.08300
C2383       C  0.68480412  0.15120952  0.33859914    -0.02800
C2384       C  0.71265343  0.16295980  0.35803575     0.04000
N2385       N  0.71603843  0.15066208  0.39562113     0.66500
H2386       H  0.75922334  0.19301740  0.35402085     0.15400
H2387       H  0.66209074  0.15364231  0.28442001     0.15100
N2388       N  0.70612365  0.19434077  0.24012469     0.74200
O2389       O  0.72083564  0.12914160  0.39413021    -0.39300
O2390       O  0.72143134  0.16547783  0.42849821    -0.39200
O2391       O  0.70390910  0.17866639  0.20912947    -0.39900
O2392       O  0.69879218  0.21401814  0.23697146    -0.40000
C2393       C  0.87079408  0.38064206  0.31500217    -0.12300
C2394       C  0.86453695  0.35644104  0.34053144     0.04700
C2395       C  0.85892135  0.35838827  0.38288511    -0.07500
C2396       C  0.86195286  0.38494067  0.39903414    -0.08300
C2397       C  0.87089748  0.41001757  0.37398102    -0.02800
C2398       C  0.87424420  0.40720180  0.33111953     0.04000
N2399       N  0.88225985  0.43143585  0.30338777     0.66500
H2400       H  0.87490408  0.37976729  0.28244106     0.15400
H2401       H  0.85886708  0.38640398  0.43178210     0.15100
N2402       N  0.85074918  0.33393590  0.41023993     0.74200
O2403       O  0.90923777  0.44786395  0.29385041    -0.39300
O2404       O  0.86256222  0.43103817  0.28035635    -0.39200
O2405       O  0.86992729  0.33446569  0.43449570    -0.39900
O2406       O  0.82359110  0.31586780  0.41682715    -0.40000
C2407       C  0.86645597  0.19900391  0.37755308    -0.12300
C2408       C  0.85241494  0.21429935  0.39185045     0.04700
C2409       C  0.84719893  0.21490391  0.43428108    -0.07500
C2410       C  0.85815457  0.20216773  0.46188986    -0.08300
C2411       C  0.87532947  0.19005212  0.44777042    -0.02800
C2412       C  0.87856180  0.18748282  0.40517642     0.04000
N2413       N  0.89553146  0.17491631  0.38952166     0.66500
H2414       H  0.87044813  0.19836025  0.34488519     0.15400
H2415       H  0.85542120  0.20411534  0.49464616     0.15100
N2416       N  0.83199844  0.22936962  0.44989907     0.74200
O2417       O  0.88216101  0.14852885  0.37611820    -0.39300
O2418       O  0.92232734  0.19200137  0.37962659    -0.39200
O2419       O  0.80491487  0.21382034  0.45947174    -0.39900
O2420       O  0.84690799  0.25559459  0.46363313    -0.40000
C2421       C  0.98353613  0.36137825  0.29644624    -0.12300
C2422       C  0.96327072  0.35371120  0.26343117     0.04700
C2423       C  0.97515954  0.36411755  0.22376511    -0.07500
C2424       C  0.00611152  0.37934620  0.21765815    -0.08300
C2425       C  0.02621606  0.38513020  0.25031254    -0.02800
C2426       C  0.01443624  0.37686915  0.29039738     0.04000
N2427       N  0.03325028  0.38266526  0.32530383     0.66500
H2428       H  0.97548232  0.35451722  0.32755163     0.15400
H2429       H  0.01440618  0.38619127  0.18662725     0.15100
N2430       N  0.95638837  0.35929467  0.18910158     0.74200
O2431       O  0.04064736  0.40567044  0.34663914    -0.39300
O2432       O  0.03594920  0.36177095  0.34040789    -0.39200
O2433       O  0.95053427  0.37927531  0.17914483    -0.39900
O2434       O  0.95211469  0.33934250  0.16327625    -0.40000
C2435       C  0.84189648  0.17950199  0.20971660    -0.12300
C2436       C  0.82702021  0.19226692  0.18978120     0.04700
C2437       C  0.81736624  0.18338227  0.14873984    -0.07500
C2438       C  0.82169898  0.16163259  0.12958411    -0.08300
C2439       C  0.83613428  0.14849411  0.14974541    -0.02800
C2440       C  0.84683862  0.15824563  0.19025194     0.04000
N2441       N  0.86307376  0.14723131  0.21230905     0.66500
H2442       H  0.84996052  0.18606317  0.24090317     0.15400
H2443       H  0.81383017  0.15524386  0.09828850     0.15100
N2444       N  0.80381575  0.19663751  0.12531459     0.74200
O2445       O  0.89108116  0.16157146  0.21074836    -0.39300
O2446       O  0.85045301  0.12890760  0.24119805    -0.39200
O2447       O  0.81954701  0.21735796  0.10051160    -0.39900
O2448       O  0.77593001  0.18289787  0.12144311    -0.40000
loop_ 
_geom_bond_atom_site_label_1 
_geom_bond_atom_site_label_2 
_geom_bond_distance 
_geom_bond_site_symmetry_2 
_ccdc_geom_bond_type 
O1           Ni7   1.923       .  S
O1           C22   1.274       .  A
O2          Ni25   1.887       .  S
O2           C11   1.263       .  A
O3           Ni7   1.907       .  S
O3          Ni25   1.891       .  S
O3          Ni19   1.931       .  S
O3           H26   0.965       .  S
C4           O21   1.288       .  A
C4           O13   1.283       .  A
C4         C2422   1.507       .  S
O5          Ni24   1.935       .  S
O5           C11   1.271       .  A
O6          Ni24   1.904       .  S
O6            C8   1.266       .  A
Ni7          O10   1.941       .  S
Ni7          O12   1.920       .  S
C8           O18   1.278       .  A
C8         C2394   1.493       .  S
O9          Ni25   1.903       .  S
O9           C15   1.271       .  A
O10          C15   1.278       .  A
C11        C2408   1.461       .  S
O12          C14   1.269       .  A
O13         Ni24   1.931       .  S
C14          O20   1.273       .  A
C14        C2436   1.497       .  S
C15        C2380   1.494       .  S
H16          O17   0.972       .  S
O17         Ni25   1.895       .  S
O17         Ni19   1.890       .  S
O17         Ni24   1.893       .  S
O18         Ni19   1.943       .  S
Ni19         O23   1.919       .  S
Ni19         O21   1.946       .  S
O20         Ni25   1.926       .  S
C22          O23   1.276       .  A
C22        C2369   1.478       .  S
O27         Ni33   1.935       .  S
O27          C48   1.276       .  A
O28         Ni51   1.888       .  S
O28          C37   1.262       .  A
O29         Ni33   1.908       .  S
O29         Ni51   1.897       .  S
O29         Ni45   1.931       .  S
O29          H52   0.966       .  S
C30          O47   1.290       .  A
C30          O39   1.279       .  A
C30        C2352   1.498   1_655  S
O31         Ni50   1.928       .  S
O31          C37   1.269       .  A
O32         Ni50   1.900       .  S
O32          C34   1.267       .  A
Ni33         O36   1.943       .  S
Ni33         O38   1.925       .  S
C34          O44   1.277       .  A
C34        C2324   1.496   1_655  S
O35         Ni51   1.899       .  S
O35          C41   1.267       .  A
O36          C41   1.279       .  A
C37        C2411   1.463       .  S
O38          C40   1.270       .  A
O39         Ni50   1.925       .  S
C40          O46   1.276       .  A
C40        C2338   1.504       .  S
C41        C2310   1.482       .  S
H42          O43   0.966       .  S
O43         Ni51   1.891       .  S
O43         Ni45   1.887       .  S
O43         Ni50   1.891       .  S
O44         Ni45   1.955       .  S
Ni45         O49   1.914       .  S
Ni45         O47   1.942       .  S
O46         Ni51   1.934       .  S
C48          O49   1.278       .  A
C48        C2296   1.491       .  S
O53         Ni59   1.928   1_554  S
O53          C74   1.277       .  A
O54         Ni77   1.881       .  S
O54          C63   1.256       .  A
O55         Ni59   1.914       .  S
O55         Ni77   1.894       .  S
O55         Ni71   1.936       .  S
O55          H78   0.963       .  S
C56          O73   1.288       .  A
C56          O65   1.278       .  A
C56        C2254   1.493       .  S
O57         Ni76   1.916       .  S
O57          C63   1.267       .  A
O58         Ni76   1.899       .  S
O58          C60   1.265       .  A
Ni59         O62   1.946       .  S
Ni59         O64   1.925       .  S
C60          O70   1.279       .  A
C60        C2240   1.495       .  S
O61         Ni77   1.910       .  S
O61          C67   1.272       .  A
O62          C67   1.279       .  A
C63        C2268   1.443       .  S
O64          C66   1.270       .  A
O65         Ni76   1.922       .  S
C66          O72   1.270       .  A
C66        C2282   1.500       .  S
C67        C2226   1.495       .  S
H68          O69   0.963       .  S
O69         Ni77   1.904       .  S
O69         Ni71   1.885       .  S
O69         Ni76   1.897       .  S
O70         Ni71   1.950       .  S
Ni71         O75   1.911       .  S
Ni71         O73   1.948       .  S
O72         Ni77   1.919       .  S
C74          O75   1.274   1_554  A
C74        C2366   1.489       .  S
O79         Ni85   1.931       .  S
O79         C100   1.277       .  A
O80        Ni103   1.883       .  S
O80          C89   1.260       .  A
O81         Ni85   1.900       .  S
O81        Ni103   1.897       .  S
O81         Ni97   1.931       .  S
O81         H104   0.965       .  S
C82          O99   1.287       .  A
C82          O91   1.280       .  A
C82        C2355   1.490       .  S
O83        Ni102   1.931       .  S
O83          C89   1.274       .  A
O84        Ni102   1.904       .  S
O84          C86   1.267       .  A
Ni85         O88   1.946       .  S
Ni85         O90   1.923       .  S
C86          O96   1.273       .  A
C86        C2198   1.492       .  S
O87        Ni103   1.926       .  S
O87          C93   1.273       .  A
O88          C93   1.280       .  A
C89        C2271   1.466       .  S
O90          C92   1.272       .  A
O91        Ni102   1.936       .  S
C92          O98   1.273       .  A
C92        C2212   1.501       .  S
C93        C2184   1.508       .  S
H94          O95   0.965       .  S
O95        Ni103   1.902       .  S
O95         Ni97   1.888       .  S
O95        Ni102   1.894       .  S
O96         Ni97   1.938       .  S
Ni97        O101   1.914       .  S
Ni97         O99   1.935       .  S
O98        Ni103   1.938       .  S
C100        O101   1.273       .  A
C100       C2170   1.487       .  S
O105       Ni111   1.936       .  S
O105        C126   1.276       .  A
O106       Ni129   1.882       .  S
O106        C115   1.259   1_556  A
O107       Ni111   1.908       .  S
O107       Ni129   1.898       .  S
O107       Ni123   1.938       .  S
O107        H130   0.965       .  S
C108        O125   1.291   1_655  A
C108        O117   1.280   1_655  A
C108       C2257   1.504       .  S
O109       Ni128   1.926       .  S
O109        C115   1.268       .  A
O110       Ni128   1.900       .  S
O110        C112   1.267   1_454  A
Ni111       O114   1.948       .  S
Ni111       O116   1.916       .  S
C112        O122   1.276   1_655  A
C112       C2128   1.491   1_556  S
O113       Ni129   1.905       .  S
O113        C119   1.268       .  A
O114        C119   1.280       .  A
C115       C2145   1.455       .  S
O116        C118   1.271       .  A
O117       Ni128   1.921   1_556  S
C118        O124   1.273       .  A
C118       C2156   1.498       .  S
C119       C2114   1.491       .  S
H120        O121   0.965       .  S
O121       Ni129   1.896       .  S
O121       Ni123   1.890       .  S
O121       Ni128   1.893   1_556  S
O122       Ni123   1.946       .  S
Ni123       O127   1.913       .  S
Ni123       O125   1.953       .  S
O124       Ni129   1.932       .  S
C126        O127   1.277       .  A
C126       C2299   1.487       .  S
O131       Ni137   1.929       .  S
O131        C152   1.277       .  A
O132       Ni155   1.885       .  S
O132        C141   1.262       .  A
O133       Ni137   1.909       .  S
O133       Ni155   1.896       .  S
O133       Ni149   1.933       .  S
O133        H156   0.965       .  S
C134        O151   1.287       .  A
C134        O143   1.280       .  A
C134       C2425   1.502       .  S
O135       Ni154   1.930       .  S
O135        C141   1.268       .  A
O136       Ni154   1.894       .  S
O136        C138   1.266       .  A
Ni137       O140   1.945       .  S
Ni137       O142   1.921       .  S
C138        O148   1.275       .  A
C138       C2086   1.491       .  S
O139       Ni155   1.904       .  S
O139        C145   1.271       .  A
O140        C145   1.278       .  A
C141       C2142   1.457       .  S
O142        C144   1.270       .  A
O143       Ni154   1.927       .  S
C144        O150   1.275       .  A
C144       C2100   1.504       .  S
C145       C2075   1.493       .  S
H146        O147   0.965       .  S
O147       Ni155   1.901       .  S
O147       Ni149   1.892       .  S
O147       Ni154   1.897       .  S
O148       Ni149   1.944       .  S
Ni149       O153   1.907       .  S
Ni149       O151   1.945       .  S
O150       Ni155   1.936       .  S
C152        O153   1.272       .  A
C152       C2173   1.484       .  S
O157       Ni163   1.939       .  S
O157        C178   1.273       .  A
O158       Ni181   1.919       .  S
O158        C167   1.281       .  A
O159       Ni163   1.892       .  S
O159       Ni181   1.886       .  S
O159       Ni175   1.897       .  S
O159        H182   0.977       .  S
C160        O177   1.271       .  A
C160        O169   1.280       .  A
C160       C2016   1.489       .  S
O161       Ni180   1.933       .  S
O161        C167   1.275       .  A
O162       Ni180   1.921       .  S
O162        C164   1.269       .  A
Ni163       O166   1.934       .  S
Ni163       O168   1.911       .  S
C164        O174   1.276       .  A
C164       C2058   1.503       .  S
O165       Ni181   1.944       .  S
O165        C171   1.291       .  A
O166        C171   1.282       .  A
C167       C2002   1.486       .  S
O168        C170   1.268       .  A
O169       Ni180   1.943       .  S
C170        O176   1.282       .  A
C170       C2187   1.503       .  S
C171       C2030   1.505       .  S
H172        O173   0.968       .  S
O173       Ni181   1.929       .  S
O173       Ni175   1.889       .  S
O173       Ni180   1.906       .  S
O174       Ni175   1.940       .  S
Ni175       O179   1.878       .  S
Ni175       O177   1.905       .  S
O176       Ni181   1.964       .  S
C178        O179   1.261       .  A
C178       C2047   1.457       .  S
O183       Ni189   1.925       .  S
O183        C204   1.268       .  A
O184       Ni207   1.915       .  S
O184        C193   1.272       .  A
O185       Ni189   1.897       .  S
O185       Ni207   1.892       .  S
O185       Ni201   1.900       .  S
O185        H208   0.970       .  S
C186        O203   1.272       .  A
C186        O195   1.278       .  A
C186       C1946   1.485       .  S
O187       Ni206   1.927       .  S
O187        C193   1.275       .  A
O188       Ni206   1.916       .  S
O188        C190   1.271       .  A
Ni189       O192   1.927       .  S
Ni189       O194   1.896       .  S
C190        O200   1.271       .  A
C190       C1974   1.499       .  S
O191       Ni207   1.933       .  S
O191        C197   1.284       .  A
O192        C197   1.279       .  A
C193       C1935   1.489       .  S
O194        C196   1.266   1_455  A
O195       Ni206   1.939       .  S
C196        O202   1.276   1_655  A
C196       C1960   1.492       .  S
C197       C1988   1.480   1_455  S
H198        O199   0.969       .  S
O199       Ni207   1.929       .  S
O199       Ni201   1.901       .  S
O199       Ni206   1.910       .  S
O200       Ni201   1.930       .  S
Ni201       O205   1.893       .  S
Ni201       O203   1.905       .  S
O202       Ni207   1.947       .  S
C204        O205   1.262       .  A
C204       C2044   1.462       .  S
O209       Ni215   1.928       .  S
O209        C230   1.271       .  A
O210       Ni233   1.920       .  S
O210        C219   1.276       .  A
O211       Ni215   1.895       .  S
O211       Ni233   1.888       .  S
O211       Ni227   1.899       .  S
O211        H234   0.966       .  S
C212        O229   1.268       .  A
C212        O221   1.281       .  A
C212       C1890   1.498       .  S
O213       Ni232   1.930       .  S
O213        C219   1.277       .  A
O214       Ni232   1.922       .  S
O214        C216   1.270       .  A
Ni215       O218   1.928       .  S
Ni215       O220   1.906       .  S
C216        O226   1.272       .  A
C216       C1904   1.492       .  S
O217       Ni233   1.941       .  S
O217        C223   1.289       .  A
O218        C223   1.279       .  A
C219       C1876   1.497       .  S
O220        C222   1.269       .  A
O221       Ni232   1.954       .  S
C222        O228   1.276       .  A
C222       C2229   1.497       .  S
C223       C2033   1.500       .  S
H224        O225   0.965       .  S
O225       Ni233   1.940       .  S
O225       Ni227   1.900       .  S
O225       Ni232   1.910       .  S
O226       Ni227   1.927       .  S
Ni227       O231   1.883       .  S
Ni227       O229   1.910       .  S
O228       Ni233   1.947       .  S
C230        O231   1.257       .  A
C230       C1918   1.458       .  S
O235       Ni241   1.930   1_556  S
O235        C256   1.272       .  A
O236       Ni259   1.915       .  S
O236        C245   1.275       .  A
O237       Ni241   1.892       .  S
O237       Ni259   1.884       .  S
O237       Ni253   1.896       .  S
O237        H260   0.965       .  S
C238        O255   1.271       .  A
C238        O247   1.278       .  A
C238       C1820   1.494       .  S
O239       Ni258   1.925       .  S
O239        C245   1.275       .  A
O240       Ni258   1.923       .  S
O240        C242   1.270       .  A
Ni241       O244   1.925       .  S
Ni241       O246   1.911   1_554  S
C242        O252   1.270       .  A
C242       C1851   1.491       .  S
O243       Ni259   1.945       .  S
O243        C249   1.291       .  A
O244        C249   1.279       .  A
C245       C1932   1.480       .  S
O246        C248   1.269   1_556  A
O247       Ni258   1.945       .  S
C248        O254   1.277       .  A
C248       C1834   1.501   1_654  S
C249       C1862   1.504   1_655  S
H250        O251   0.967       .  S
O251       Ni259   1.937       .  S
O251       Ni253   1.896       .  S
O251       Ni258   1.915       .  S
O252       Ni253   1.918       .  S
Ni253       O257   1.883       .  S
Ni253       O255   1.908       .  S
O254       Ni259   1.945       .  S
C256        O257   1.258   1_556  A
C256       C1921   1.457       .  S
O261       Ni267   1.934       .  S
O261        C282   1.271       .  A
O262       Ni285   1.923       .  S
O262        C271   1.280   1_554  A
O263       Ni267   1.898       .  S
O263       Ni285   1.890       .  S
O263       Ni279   1.897       .  S
O263        H286   0.964       .  S
C264        O281   1.269       .  A
C264        O273   1.278       .  A
C264       C2089   1.482       .  S
O265       Ni284   1.929       .  S
O265        C271   1.275   1_554  A
O266       Ni284   1.923       .  S
O266        C268   1.270       .  A
Ni267       O270   1.930       .  S
Ni267       O272   1.904       .  S
C268        O278   1.274       .  A
C268       C2285   1.501       .  S
O269       Ni285   1.940       .  S
O269        C275   1.290       .  A
O270        C275   1.279       .  A
C271       C2005   1.496       .  S
O272        C274   1.269       .  A
O273       Ni284   1.940       .  S
C274        O280   1.278       .  A
C274       C1795   1.500       .  S
C275       C1865   1.500       .  S
H276        O277   0.965       .  S
O277       Ni285   1.930       .  S
O277       Ni279   1.893       .  S
O277       Ni284   1.909       .  S
O278       Ni279   1.929       .  S
Ni279       O283   1.882       .  S
Ni279       O281   1.899       .  S
O280       Ni285   1.949       .  S
C282        O283   1.260       .  A
C282       C1809   1.459       .  S
O287       Ni293   1.929       .  S
O287        C308   1.269       .  A
O288       Ni311   1.923       .  S
O288        C297   1.277       .  A
O289       Ni293   1.891       .  S
O289       Ni311   1.892       .  S
O289       Ni305   1.892       .  S
O289        H312   0.964       .  S
C290        O307   1.266       .  A
C290        O299   1.280       .  A
C290       C2397   1.491       .  S
O291       Ni310   1.935       .  S
O291        C297   1.277       .  A
O292       Ni310   1.923       .  S
O292        C294   1.272       .  A
Ni293       O296   1.919       .  S
Ni293       O298   1.899       .  S
C294        O304   1.272       .  A
C294       C2215   1.498       .  S
O295       Ni311   1.953       .  S
O295        C301   1.291       .  A
O296        C301   1.279       .  A
C297       C1879   1.483       .  S
O298        C300   1.267       .  A
O299       Ni310   1.950       .  S
C300        O306   1.276       .  A
C300       C1781   1.497       .  S
C301       C1991   1.498       .  S
H302        O303   0.965       .  S
O303       Ni311   1.936       .  S
O303       Ni305   1.899       .  S
O303       Ni310   1.907       .  S
O304       Ni305   1.931       .  S
Ni305       O309   1.882       .  S
Ni305       O307   1.899       .  S
O306       Ni311   1.949       .  S
C308        O309   1.259       .  A
C308       C1806   1.457       .  S
O313       Ni319   1.925       .  S
O313        C334   1.274       .  A
O314       Ni337   1.886       .  S
O314        C323   1.259       .  A
O315       Ni319   1.915       .  S
O315       Ni337   1.900       .  S
O315       Ni331   1.943       .  S
O315        H338   0.965       .  S
C316        O333   1.295       .  A
C316        O325   1.279       .  A
C316       C1767   1.506       .  S
O317       Ni336   1.927       .  S
O317        C323   1.271       .  A
O318       Ni336   1.906       .  S
O318        C320   1.269       .  A
Ni319       O322   1.945       .  S
Ni319       O324   1.921       .  S
C320        O330   1.274       .  A
C320       C1736   1.495       .  S
O321       Ni337   1.902       .  S
O321        C327   1.268       .  A
O322        C327   1.277       .  A
C323       C1750   1.464       .  S
O324        C326   1.271       .  A
O325       Ni336   1.923       .  S
C326        O332   1.271       .  A
C326       C1848   1.490       .  S
C327       C1778   1.489       .  S
H328        O329   0.964       .  S
O329       Ni337   1.894       .  S
O329       Ni331   1.886       .  S
O329       Ni336   1.891       .  S
O330       Ni331   1.942       .  S
Ni331       O335   1.921       .  S
Ni331       O333   1.955       .  S
O332       Ni337   1.918       .  S
C334        O335   1.279       .  A
C334       C1725   1.485       .  S
O339       Ni345   1.926       .  S
O339        C360   1.276       .  A
O340       Ni363   1.886       .  S
O340        C349   1.259       .  A
O341       Ni345   1.912       .  S
O341       Ni363   1.899       .  S
O341       Ni357   1.937       .  S
O341        H364   0.967       .  S
C342        O359   1.290       .  A
C342        O351   1.279       .  A
C342       C1708   1.500       .  S
O343       Ni362   1.924       .  S
O343        C349   1.270       .  A
O344       Ni362   1.909       .  S
O344        C346   1.268       .  A
Ni345       O348   1.948       .  S
Ni345       O350   1.923       .  S
C346        O356   1.278       .  A
C346       C1694   1.498       .  S
O347       Ni363   1.901       .  S
O347        C353   1.269       .  A
O348        C353   1.278       .  A
C349       C1753   1.455       .  S
O350        C352   1.271       .  A
O351       Ni362   1.925       .  S
C352        O358   1.271       .  A
C352       C1907   1.491       .  S
C353       C1963   1.490       .  S
H354        O355   0.966       .  S
O355       Ni363   1.896       .  S
O355       Ni357   1.884       .  S
O355       Ni362   1.894       .  S
O356       Ni357   1.947       .  S
Ni357       O361   1.922       .  S
Ni357       O359   1.941       .  S
O358       Ni363   1.925       .  S
C360        O361   1.277       .  A
C360       C1680   1.490       .  S
O365       Ni371   1.933       .  S
O365        C386   1.277       .  A
O366       Ni389   1.897       .  S
O366        C375   1.261   1_556  A
O367       Ni371   1.915       .  S
O367       Ni389   1.906       .  S
O367       Ni383   1.940       .  S
O367        H390   0.965       .  S
C368        O385   1.288       .  A
C368        O377   1.279       .  A
C368       C1638   1.501       .  S
O369       Ni388   1.919   1_554  S
O369        C375   1.268       .  A
O370       Ni388   1.903   1_554  S
O370        C372   1.267   1_554  A
Ni371       O374   1.949       .  S
Ni371       O376   1.919       .  S
C372        O382   1.277       .  A
C372       C1823   1.497   1_556  S
O373       Ni389   1.905       .  S
O373        C379   1.269       .  A
O374        C379   1.279       .  A
C375       C1655   1.463       .  S
O376        C378   1.270       .  A
O377       Ni388   1.917       .  S
C378        O384   1.272       .  A
C378       C1669   1.498       .  S
C379       C1627   1.489       .  S
H380        O381   0.964       .  S
O381       Ni389   1.895       .  S
O381       Ni383   1.889       .  S
O381       Ni388   1.892       .  S
O382       Ni383   1.950       .  S
Ni383       O387   1.917       .  S
Ni383       O385   1.946       .  S
O384       Ni389   1.925       .  S
C386        O387   1.274       .  A
C386       C1683   1.491       .  S
O391       Ni397   1.929       .  S
O391        C412   1.274       .  A
O392       Ni415   1.896       .  S
O392        C401   1.262       .  A
O393       Ni397   1.909       .  S
O393       Ni415   1.893       .  S
O393       Ni409   1.932       .  S
O393        H416   0.963       .  S
C394        O411   1.289       .  A
C394        O403   1.279       .  A
C394       C1764   1.500       .  S
O395       Ni414   1.920       .  S
O395        C401   1.268       .  A
O396       Ni414   1.895       .  S
O396        C398   1.264       .  A
Ni397       O400   1.935       .  S
Ni397       O402   1.917       .  S
C398        O408   1.278       .  A
C398       C1582   1.486       .  S
O399       Ni415   1.915       .  S
O399        C405   1.275       .  A
O400        C405   1.278       .  A
C401       C1652   1.457       .  S
O402        C404   1.268       .  A
O403       Ni414   1.930       .  S
C404        O410   1.272       .  A
C404       C1610   1.491       .  S
C405       C1599   1.485       .  S
H406        O407   0.964       .  S
O407       Ni415   1.907       .  S
O407       Ni409   1.887       .  S
O407       Ni414   1.898       .  S
O408       Ni409   1.945       .  S
Ni409       O413   1.913       .  S
Ni409       O411   1.945       .  S
O410       Ni415   1.918       .  S
C412        O413   1.277       .  A
C412       C1568   1.490       .  S
O417       Ni423   1.939       .  S
O417        C438   1.276       .  A
O418       Ni441   1.882       .  S
O418        C427   1.257       .  A
O419       Ni423   1.906       .  S
O419       Ni441   1.898       .  S
O419       Ni435   1.930       .  S
O419        H442   0.965       .  S
C420        O437   1.287       .  A
C420        O429   1.277       .  A
C420       C1711   1.490       .  S
O421       Ni440   1.911       .  S
O421        C427   1.264       .  A
O422       Ni440   1.892       .  S
O422        C424   1.266       .  A
Ni423       O426   1.947       .  S
Ni423       O428   1.910       .  S
C424        O434   1.276       .  A
C424       C1526   1.491       .  S
O425       Ni441   1.905       .  S
O425        C431   1.269       .  A
O426        C431   1.281       .  A
C427       C1557   1.441       .  S
O428        C430   1.270       .  A
O429       Ni440   1.921       .  S
C430        O436   1.272       .  A
C430       C1540   1.497       .  S
C431       C1512   1.492       .  S
H432        O433   0.964       .  S
O433       Ni441   1.911       .  S
O433       Ni435   1.887       .  S
O433       Ni440   1.898       .  S
O434       Ni435   1.947       .  S
Ni435       O439   1.904       .  S
Ni435       O437   1.941       .  S
O436       Ni441   1.936       .  S
C438        O439   1.273       .  A
C438       C1571   1.482       .  S
O443       Ni449   1.943   1_554  S
O443        C464   1.277       .  A
O444       Ni467   1.907       .  S
O444        C453   1.262       .  A
O445       Ni449   1.903       .  S
O445       Ni467   1.897       .  S
O445       Ni461   1.928       .  S
O445        H468   0.965       .  S
C446        O463   1.289       .  A
C446        O455   1.283       .  A
C446       C1641   1.492       .  S
O447       Ni466   1.903       .  S
O447        C453   1.263       .  A
O448       Ni466   1.893       .  S
O448        C450   1.262       .  A
Ni449       O452   1.949       .  S
Ni449       O454   1.917       .  S
C450        O460   1.280       .  A
C450       C1893   1.500       .  S
O451       Ni467   1.899       .  S
O451        C457   1.271       .  A
O452        C457   1.282       .  A
C453       C1554   1.468       .  S
O454        C456   1.269       .  A
O455       Ni466   1.920       .  S
C456        O462   1.273       .  A
C456       C1498   1.497       .  S
C457       C1484   1.487       .  S
H458        O459   0.967       .  S
O459       Ni467   1.906       .  S
O459       Ni461   1.878       .  S
O459       Ni466   1.879       .  S
O460       Ni461   1.961       .  S
Ni461       O465   1.906       .  S
Ni461       O463   1.944       .  S
O462       Ni467   1.929       .  S
C464        O465   1.273   1_554  A
C464       C1722   1.471       .  S
O469       Ni475   1.933       .  S
O469        C490   1.270       .  A
O470       Ni493   1.908       .  S
O470        C479   1.272       .  A
O471       Ni475   1.897       .  S
O471       Ni493   1.894       .  S
O471       Ni487   1.903       .  S
O471        H494   0.966       .  S
C472        O489   1.272       .  A
C472        O481   1.278       .  A
C472       C1739   1.488       .  S
O473       Ni492   1.928       .  S
O473        C479   1.275       .  A
O474       Ni492   1.922       .  S
O474        C476   1.270       .  A
Ni475       O478   1.932       .  S
Ni475       O480   1.902       .  S
C476        O486   1.269       .  A
C476       C1543   1.495       .  S
O477       Ni493   1.937       .  S
O477        C483   1.283       .  A
O478        C483   1.281       .  A
C479       C1431   1.482       .  S
O480        C482   1.266       .  A
O481       Ni492   1.938       .  S
C482        O488   1.278       .  A
C482       C1442   1.496       .  S
C483       C1470   1.503       .  S
H484        O485   0.965       .  S
O485       Ni493   1.927       .  S
O485       Ni487   1.893       .  S
O485       Ni492   1.909       .  S
O486       Ni487   1.922       .  S
Ni487       O491   1.882       .  S
Ni487       O489   1.909       .  S
O488       Ni493   1.943       .  S
C490        O491   1.257       .  A
C490       C1456   1.450       .  S
O495       Ni501   1.929       .  S
O495        C516   1.269       .  A
O496       Ni519   1.913       .  S
O496        C505   1.274   1_554  A
O497       Ni501   1.890       .  S
O497       Ni519   1.890       .  S
O497       Ni513   1.882       .  S
O497        H520   0.964       .  S
C498        O515   1.263       .  A
C498        O507   1.279       .  A
C498       C1585   1.485       .  S
O499       Ni518   1.936   1_556  S
O499        C505   1.277       .  A
O500       Ni518   1.923       .  S
O500        C502   1.271       .  A
Ni501       O504   1.920       .  S
Ni501       O506   1.898       .  S
C502        O512   1.274       .  A
C502       C1501   1.500       .  S
O503       Ni519   1.933       .  S
O503        C509   1.286       .  A
O504        C509   1.280       .  A
C505       C1400   1.487       .  S
O506        C508   1.265       .  A
O507       Ni518   1.944       .  S
C508        O514   1.275       .  A
C508       C2072   1.492       .  S
C509       C1417   1.494       .  S
H510        O511   0.966       .  S
O511       Ni519   1.927       .  S
O511       Ni513   1.899       .  S
O511       Ni518   1.907       .  S
O512       Ni513   1.928       .  S
Ni513       O517   1.881       .  S
Ni513       O515   1.888       .  S
O514       Ni519   1.948       .  S
C516        O517   1.260       .  A
C516       C1459   1.464       .  S
O521       Ni527   1.932       .  S
O521        C542   1.270       .  A
O522       Ni545   1.920       .  S
O522        C531   1.275       .  A
O523       Ni527   1.899       .  S
O523       Ni545   1.891       .  S
O523       Ni539   1.899       .  S
O523        H546   0.970       .  S
C524        O541   1.271       .  A
C524        O533   1.280       .  A
C524       C2327   1.493       .  S
O525       Ni544   1.931       .  S
O525        C531   1.277       .  A
O526       Ni544   1.926       .  S
O526        C528   1.271       .  A
Ni527       O530   1.934       .  S
Ni527       O532   1.906       .  S
C528        O538   1.274       .  A
C528       C2103   1.504       .  S
O529       Ni545   1.934       .  S
O529        C535   1.284       .  A
O530        C535   1.283       .  A
C531       C1361   1.493       .  S
O532        C534   1.267       .  A
O533       Ni544   1.946       .  S
C534        O540   1.278       .  A
C534       C1372   1.494       .  S
C535       C1473   1.499       .  S
H536        O537   0.967       .  S
O537       Ni545   1.928       .  S
O537       Ni539   1.896       .  S
O537       Ni544   1.907       .  S
O538       Ni539   1.931       .  S
Ni539       O543   1.891       .  S
Ni539       O541   1.904       .  S
O540       Ni545   1.945       .  S
C542        O543   1.261       .  A
C542       C1389   1.456       .  S
O547       Ni553   1.924       .  S
O547        C568   1.268       .  A
O548       Ni571   1.920       .  S
O548        C557   1.274       .  A
O549       Ni553   1.899       .  S
O549       Ni571   1.893       .  S
O549       Ni565   1.903       .  S
O549        H572   0.965       .  S
C550        O567   1.274       .  A
C550        O559   1.277       .  A
C550       C2201   1.486       .  S
O551       Ni570   1.925       .  S
O551        C557   1.275       .  A
O552       Ni570   1.913       .  S
O552        C554   1.270       .  A
Ni553       O556   1.927       .  S
Ni553       O558   1.896       .  S
C554        O564   1.273       .  A
C554       C2159   1.500       .  S
O555       Ni571   1.937       .  S
O555        C561   1.285       .  A
O556        C561   1.280       .  A
C557       C1403   1.490       .  S
O558        C560   1.265       .  A
O559       Ni570   1.938       .  S
C560        O566   1.278       .  A
C560       C1515   1.493       .  S
C561       C1344   1.484       .  S
H562        O563   0.964       .  S
O563       Ni571   1.929       .  S
O563       Ni565   1.897       .  S
O563       Ni570   1.906       .  S
O564       Ni565   1.937       .  S
Ni565       O569   1.895       .  S
Ni565       O567   1.905       .  S
O566       Ni571   1.948       .  S
C568        O569   1.264       .  A
C568       C1386   1.468       .  S
O573       Ni579   1.928   1_556  S
O573        C594   1.269       .  A
O574       Ni597   1.923       .  S
O574        C583   1.276       .  A
O575       Ni579   1.896       .  S
O575       Ni597   1.899       .  S
O575       Ni591   1.898       .  S
O575        H598   0.964       .  S
C576        O593   1.272       .  A
C576        O585   1.278       .  A
C576       C1302   1.482       .  S
O577       Ni596   1.929       .  S
O577        C583   1.275       .  A
O578       Ni596   1.914       .  S
O578        C580   1.270       .  A
Ni579       O582   1.918       .  S
Ni579       O584   1.899   1_554  S
C580        O590   1.273       .  A
C580       C1333   1.497       .  S
O581       Ni597   1.937       .  S
O581        C587   1.284       .  A
O582        C587   1.279       .  A
C583       C1358   1.492       .  S
O584        C586   1.265   1_556  A
O585       Ni596   1.937       .  S
C586        O592   1.281       .  A
C586       C2117   1.499   1_554  S
C587       C1414   1.495       .  S
H588        O589   0.965       .  S
O589       Ni597   1.926       .  S
O589       Ni591   1.898       .  S
O589       Ni596   1.905       .  S
O590       Ni591   1.935       .  S
Ni591       O595   1.894       .  S
Ni591       O593   1.902       .  S
O592       Ni597   1.954       .  S
C594        O595   1.263   1_556  A
C594       C1316   1.467       .  S
O599       Ni605   1.925       .  S
O599        C620   1.267       .  A
O600       Ni623   1.916       .  S
O600        C609   1.275       .  A
O601       Ni605   1.891       .  S
O601       Ni623   1.890       .  S
O601       Ni617   1.899       .  S
O601        H624   0.963       .  S
C602        O619   1.269       .  A
C602        O611   1.279       .  A
C602       C1277   1.486       .  S
O603       Ni622   1.927       .  S
O603        C609   1.277       .  A
O604       Ni622   1.919       .  S
O604        C606   1.269       .  A
Ni605       O608   1.922       .  S
Ni605       O610   1.895       .  S
C606        O616   1.274       .  A
C606       C1288   1.497       .  S
O607       Ni623   1.956       .  S
O607        C613   1.291       .  A
O608        C613   1.280       .  A
C609       C1428   1.486       .  S
O610        C612   1.266       .  A
O611       Ni622   1.947       .  S
C612        O618   1.276       .  A
C612       C1487   1.494       .  S
C613       C1347   1.503       .  S
H614        O615   0.966       .  S
O615       Ni623   1.942       .  S
O615       Ni617   1.899       .  S
O615       Ni622   1.911       .  S
O616       Ni617   1.932       .  S
Ni617       O621   1.892       .  S
Ni617       O619   1.903       .  S
O618       Ni623   1.949       .  S
C620        O621   1.261       .  A
C620       C1319   1.457       .  S
O625       Ni631   1.933       .  S
O625        C646   1.270       .  A
O626       Ni649   1.923       .  S
O626        C635   1.278   1_554  A
O627       Ni631   1.893       .  S
O627       Ni649   1.892       .  S
O627       Ni643   1.891       .  S
O627        H650   0.966       .  S
C628        O645   1.266       .  A
C628        O637   1.280       .  A
C628       C1218   1.487       .  S
O629       Ni648   1.933   1_556  S
O629        C635   1.277       .  A
O630       Ni648   1.922       .  S
O630        C632   1.272       .  A
Ni631       O634   1.925       .  S
Ni631       O636   1.899       .  S
C632        O642   1.273       .  A
C632       C1260   1.504       .  S
O633       Ni649   1.938       .  S
O633        C639   1.290       .  A
O634        C639   1.279       .  A
C635       C1207   1.482       .  S
O636        C638   1.267       .  A
O637       Ni648   1.945       .  S
C638        O644   1.275       .  A
C638       C1596   1.495       .  S
C639       C1246   1.498       .  S
H640        O641   0.966       .  S
O641       Ni649   1.925       .  S
O641       Ni643   1.890       .  S
O641       Ni648   1.896       .  S
O642       Ni643   1.940       .  S
Ni643       O647   1.867       .  S
Ni643       O645   1.896       .  S
O644       Ni649   1.946       .  S
C646        O647   1.258       .  A
C646       C1232   1.458       .  S
O651       Ni657   1.930       .  S
O651        C672   1.270       .  A
O652       Ni675   1.918       .  S
O652        C661   1.279       .  A
O653       Ni657   1.894       .  S
O653       Ni675   1.886       .  S
O653       Ni669   1.904       .  S
O653        H676   0.965       .  S
C654        O671   1.271       .  A
C654        O663   1.279       .  A
C654       C1162   1.493       .  S
O655       Ni674   1.930       .  S
O655        C661   1.274       .  A
O656       Ni674   1.918       .  S
O656        C658   1.270       .  A
Ni657       O660   1.934       .  S
Ni657       O662   1.900       .  S
C658        O668   1.270       .  A
C658       C1179   1.495       .  S
O659       Ni675   1.948       .  S
O659        C665   1.292       .  A
O660        C665   1.281       .  A
C661       C1151   1.483       .  S
O662        C664   1.267       .  A
O663       Ni674   1.947       .  S
C664        O670   1.276       .  A
C664       C2383   1.483       .  S
C665       C1193   1.507       .  S
H666        O667   0.966       .  S
O667       Ni675   1.936       .  S
O667       Ni669   1.891       .  S
O667       Ni674   1.910       .  S
O668       Ni669   1.927       .  S
Ni669       O673   1.875       .  S
Ni669       O671   1.908       .  S
O670       Ni675   1.943       .  S
C672        O673   1.257       .  A
C672       C1235   1.447       .  S
O677       Ni683   1.927   1_556  S
O677        C698   1.268       .  A
O678       Ni701   1.919       .  S
O678        C687   1.277       .  A
O679       Ni683   1.894       .  S
O679       Ni701   1.893       .  S
O679       Ni695   1.900       .  S
O679        H702   0.966       .  S
C680        O697   1.273       .  A
C680        O689   1.282       .  A
C680       C2131   1.495       .  S
O681       Ni700   1.943       .  S
O681        C687   1.277       .  A
O682       Ni700   1.915       .  S
O682        C684   1.268       .  A
Ni683       O686   1.922       .  S
Ni683       O688   1.895   1_554  S
C684        O694   1.275       .  A
C684       C2439   1.497       .  S
O685       Ni701   1.939       .  S
O685        C691   1.287       .  A
O686        C691   1.278       .  A
C687       C1123   1.481       .  S
O688        C690   1.267   1_556  A
O689       Ni700   1.951       .  S
C690        O696   1.280       .  A
C690       C1624   1.501   1_544  S
C691       C1249   1.493   1_545  S
H692        O693   0.966       .  S
O693       Ni701   1.929       .  S
O693       Ni695   1.897       .  S
O693       Ni700   1.909       .  S
O694       Ni695   1.930       .  S
Ni695       O699   1.902       .  S
Ni695       O697   1.905       .  S
O696       Ni701   1.958       .  S
C698        O699   1.265   1_556  A
C698       C1134   1.468       .  S
O703       Ni709   1.934       .  S
O703        C724   1.270       .  A
O704       Ni727   1.921       .  S
O704        C713   1.279       .  A
O705       Ni709   1.901       .  S
O705       Ni727   1.895       .  S
O705       Ni721   1.898       .  S
O705        H728   0.967       .  S
C706        O723   1.271       .  A
C706        O715   1.279       .  A
C706       C2243   1.484       .  S
O707       Ni726   1.931       .  S
O707        C713   1.274       .  A
O708       Ni726   1.922       .  S
O708        C710   1.270       .  A
Ni709       O712   1.932       .  S
Ni709       O714   1.904       .  S
C710        O720   1.276       .  A
C710       C2341   1.506       .  S
O711       Ni727   1.944       .  S
O711        C717   1.288       .  A
O712        C717   1.280       .  A
C713       C1148   1.495       .  S
O714        C716   1.266       .  A
O715       Ni726   1.938       .  S
C716        O722   1.279       .  A
C716       C1092   1.493       .  S
C717       C1106   1.504       .  S
H718        O719   0.967       .  S
O719       Ni727   1.926       .  S
O719       Ni721   1.897       .  S
O719       Ni726   1.908       .  S
O720       Ni721   1.938       .  S
Ni721       O725   1.893       .  S
Ni721       O723   1.907       .  S
O722       Ni727   1.951       .  S
C724        O725   1.263       .  A
C724       C1137   1.465       .  S
O729       Ni735   1.927       .  S
O729        C750   1.269       .  A
O730       Ni753   1.934       .  S
O730        C739   1.283       .  A
O731       Ni735   1.895       .  S
O731       Ni753   1.891       .  S
O731       Ni747   1.901       .  S
O731        H754   0.964       .  S
C732        O749   1.270       .  A
C732        O741   1.278       .  A
C732       C1697   1.493       .  S
O733       Ni752   1.922       .  S
O733        C739   1.273       .  A
O734       Ni752   1.920       .  S
O734        C736   1.269       .  A
Ni735       O738   1.925       .  S
Ni735       O740   1.899       .  S
C736        O746   1.269       .  A
C736       C1613   1.493       .  S
O737       Ni753   1.955       .  S
O737        C743   1.293       .  A
O738        C743   1.278       .  A
C739       C1120   1.493       .  S
O740        C742   1.266       .  A
O741       Ni752   1.939       .  S
C742        O748   1.279       .  A
C742       C2313   1.492   1_565  S
C743       C1190   1.507   1_565  S
H744        O745   0.964       .  S
O745       Ni753   1.939       .  S
O745       Ni747   1.896       .  S
O745       Ni752   1.909       .  S
O746       Ni747   1.916       .  S
Ni747       O751   1.881       .  S
Ni747       O749   1.914       .  S
O748       Ni753   1.944       .  S
C750        O751   1.257       .  A
C750       C1078   1.452       .  S
O755       Ni761   1.930       .  S
O755        C776   1.272       .  A
O756       Ni779   1.920       .  S
O756        C765   1.276       .  A
O757       Ni761   1.891       .  S
O757       Ni779   1.885       .  S
O757       Ni773   1.891       .  S
O757        H780   0.965       .  S
C758        O775   1.269       .  A
C758        O767   1.280       .  A
C758       C1529   1.484       .  S
O759       Ni778   1.932       .  S
O759        C765   1.278       .  A
O760       Ni778   1.925       .  S
O760        C762   1.270       .  A
Ni761       O764   1.932       .  S
Ni761       O766   1.908       .  S
C762        O772   1.271       .  A
C762       C1666   1.497       .  S
O763       Ni779   1.934       .  S
O763        C769   1.288       .  A
O764        C769   1.280       .  A
C765       C1204   1.495       .  S
O766        C768   1.267       .  A
O767       Ni778   1.946       .  S
C768        O774   1.278       .  A
C768       C1067   1.499       .  S
C769       C1109   1.503       .  S
H770        O771   0.963       .  S
O771       Ni779   1.931       .  S
O771       Ni773   1.893       .  S
O771       Ni778   1.906       .  S
O772       Ni773   1.920       .  S
Ni773       O777   1.883       .  S
Ni773       O775   1.900       .  S
O774       Ni779   1.948       .  S
C776        O777   1.258       .  A
C776       C1081   1.459       .  S
O781       Ni787   1.934       .  S
O781        C802   1.277       .  A
O782       Ni805   1.902       .  S
O782        C791   1.262   1_556  A
O783       Ni787   1.908       .  S
O783       Ni805   1.904       .  S
O783       Ni799   1.938       .  S
O783        H806   0.965       .  S
C784        O801   1.288   1_545  A
C784        O793   1.278   1_545  A
C784       C1036   1.495       .  S
O785       Ni804   1.914   1_554  S
O785        C791   1.268       .  A
O786       Ni804   1.898   1_554  S
O786        C788   1.266   1_564  A
Ni787       O790   1.941       .  S
Ni787       O792   1.920       .  S
C788        O798   1.273       .  A
C788       C1305   1.490   1_556  S
O789       Ni805   1.918       .  S
O789        C795   1.272       .  A
O790        C795   1.280       .  A
C791       C1050   1.475       .  S
O792        C794   1.270       .  A
O793       Ni804   1.918       .  S
C794        O800   1.276       .  A
C794       C2061   1.501       .  S
C795       C1837   1.494       .  S
H796        O797   0.966       .  S
O797       Ni805   1.906       .  S
O797       Ni799   1.889       .  S
O797       Ni804   1.892       .  S
O798       Ni799   1.939   1_545  S
Ni799       O803   1.907       .  S
Ni799       O801   1.948       .  S
O800       Ni805   1.933       .  S
C802        O803   1.271       .  A
C802       C1022   1.488       .  S
O807       Ni813   1.927       .  S
O807        C828   1.276       .  A
O808       Ni831   1.900       .  S
O808        C817   1.260       .  A
O809       Ni813   1.913       .  S
O809       Ni831   1.906       .  S
O809       Ni825   1.941       .  S
O809        H832   0.965       .  S
C810        O827   1.288       .  A
C810        O819   1.278       .  A
C810       C1008   1.497       .  S
O811       Ni830   1.903       .  S
O811        C817   1.262       .  A
O812       Ni830   1.893       .  S
O812        C814   1.263       .  A
Ni813       O816   1.944       .  S
Ni813       O818   1.913       .  S
C814        O824   1.279       .  A
C814       C1221   1.488       .  S
O815       Ni831   1.908       .  S
O815        C821   1.272       .  A
O816        C821   1.278       .  A
C817       C1053   1.451       .  S
O818        C820   1.270       .  A
O819       Ni830   1.913       .  S
C820        O826   1.270       .  A
C820       C1977   1.496       .  S
C821       C1792   1.491       .  S
H822        O823   0.965       .  S
O823       Ni831   1.908       .  S
O823       Ni825   1.891       .  S
O823       Ni830   1.896       .  S
O824       Ni825   1.947       .  S
Ni825       O829   1.924       .  S
Ni825       O827   1.950       .  S
O826       Ni831   1.927       .  S
C828        O829   1.275       .  A
C828        C994   1.493       .  S
O833       Ni839   1.931       .  S
O833        C854   1.275       .  A
O834       Ni857   1.880       .  S
O834        C843   1.259       .  A
O835       Ni839   1.911       .  S
O835       Ni857   1.905       .  S
O835       Ni851   1.935       .  S
O835        H858   0.965       .  S
C836        O853   1.287       .  A
C836        O845   1.280       .  A
C836        C966   1.503       .  S
O837       Ni856   1.934       .  S
O837        C843   1.269       .  A
O838       Ni856   1.896       .  S
O838        C840   1.267       .  A
Ni839       O842   1.942       .  S
Ni839       O844   1.915       .  S
C840        O850   1.277       .  A
C840       C2019   1.491       .  S
O841       Ni857   1.908       .  S
O841        C847   1.268       .  A
O842        C847   1.278       .  A
C843        C980   1.460       .  S
O844        C846   1.271       .  A
O845       Ni856   1.923       .  S
C846        O852   1.271       .  A
C846       C1176   1.499       .  S
C847       C1064   1.492       .  S
H848        O849   0.965       .  S
O849       Ni857   1.897       .  S
O849       Ni851   1.900       .  S
O849       Ni856   1.895       .  S
O850       Ni851   1.950       .  S
Ni851       O855   1.923       .  S
Ni851       O853   1.944       .  S
O852       Ni857   1.932       .  S
C854        O855   1.277       .  A
C854        C997   1.493       .  S
O859       Ni865   1.931   1_554  S
O859        C880   1.278       .  A
O860       Ni883   1.883       .  S
O860        C869   1.259       .  A
O861       Ni865   1.903       .  S
O861       Ni883   1.895       .  S
O861       Ni877   1.933       .  S
O861        H884   0.965       .  S
C862        O879   1.290       .  A
C862        O871   1.279       .  A
C862       C1039   1.504       .  S
O863       Ni882   1.934       .  S
O863        C869   1.269       .  A
O864       Ni882   1.896       .  S
O864        C866   1.267       .  A
Ni865       O868   1.946       .  S
Ni865       O870   1.929       .  S
C866        O876   1.279       .  A
C866       C1274   1.500       .  S
O867       Ni883   1.905       .  S
O867        C873   1.269       .  A
O868        C873   1.280       .  A
C869        C983   1.457       .  S
O870        C872   1.272       .  A
O871       Ni882   1.920       .  S
C872        O878   1.272       .  A
C872       C1263   1.503       .  S
C873       C1095   1.492       .  S
H874        O875   0.964       .  S
O875       Ni883   1.896       .  S
O875       Ni877   1.899       .  S
O875       Ni882   1.892       .  S
O876       Ni877   1.956       .  S
Ni877       O881   1.927       .  S
Ni877       O879   1.950       .  S
O878       Ni883   1.930       .  S
C880        O881   1.280   1_554  A
C880        C952   1.491       .  S
O885       Ni891   1.931       .  S
O885        C906   1.277       .  A
O886       Ni909   1.886       .  S
O886        C895   1.259       .  A
O887       Ni891   1.912       .  S
O887       Ni909   1.898       .  S
O887       Ni903   1.933       .  S
O887        H910   0.965       .  S
C888        O905   1.286       .  A
C888        O897   1.279       .  A
C888        C969   1.496   1_545  S
O889       Ni908   1.927       .  S
O889        C895   1.268       .  A
O890       Ni908   1.898       .  S
O890        C892   1.267       .  A
Ni891       O894   1.943       .  S
Ni891       O896   1.924       .  S
C892        O902   1.275       .  A
C892       C1949   1.494   1_545  S
O893       Ni909   1.902       .  S
O893        C899   1.269       .  A
O894        C899   1.279       .  A
C895        C941   1.457       .  S
O896        C898   1.270       .  A
O897       Ni908   1.920       .  S
C898        O904   1.271       .  A
C898       C1291   1.496       .  S
C899       C1375   1.488       .  S
H900        O901   0.963       .  S
O901       Ni909   1.900       .  S
O901       Ni903   1.895       .  S
O901       Ni908   1.898       .  S
O902       Ni903   1.943       .  S
Ni903       O907   1.914       .  S
Ni903       O905   1.943       .  S
O904       Ni909   1.924       .  S
C906        O907   1.273       .  A
C906       C1025   1.484       .  S
O911       Ni917   1.926       .  S
O911        C932   1.275       .  A
O912       Ni935   1.885       .  S
O912        C921   1.259       .  A
O913       Ni917   1.912       .  S
O913       Ni935   1.907       .  S
O913       Ni929   1.938       .  S
O913        H936   0.965       .  S
C914        O931   1.288       .  A
C914        O923   1.280       .  A
C914       C1011   1.501       .  S
O915       Ni934   1.930       .  S
O915        C921   1.268       .  A
O916       Ni934   1.902       .  S
O916        C918   1.268       .  A
Ni917       O920   1.941       .  S
Ni917       O922   1.914       .  S
C918        O928   1.278       .  A
C918       C1165   1.496       .  S
O919       Ni935   1.902       .  S
O919        C925   1.267       .  A
O920        C925   1.277       .  A
C921        C938   1.458       .  S
O922        C924   1.270       .  A
O923       Ni934   1.921       .  S
C924        O930   1.273       .  A
C924       C1330   1.500       .  S
C925       C1445   1.485       .  S
H926        O927   0.965       .  S
O927       Ni935   1.897       .  S
O927       Ni929   1.897       .  S
O927       Ni934   1.897       .  S
O928       Ni929   1.951       .  S
Ni929       O933   1.926       .  S
Ni929       O931   1.945       .  S
O930       Ni935   1.938       .  S
C932        O933   1.276       .  A
C932        C955   1.496       .  S
C937        C938   1.401       .  A
C937        C942   1.392       .  A
C937        H944   1.082       .  S
C938        C939   1.406       .  A
C939        C940   1.395       .  A
C939        N946   1.429       .  S
C940        C941   1.402       .  A
C940        H945   1.085       .  S
C941        C942   1.405       .  A
C942        N943   1.429       .  S
N943        O947   1.262       .  A
N943        O948   1.262       .  A
N946        O950   1.262       .  A
N946        O949   1.262       .  A
C951        C952   1.410       .  A
C951        C956   1.403       .  A
C951        H958   1.084       .  S
C952        C953   1.409       .  A
C953        C954   1.402       .  A
C953        N960   1.428       .  S
C954        C955   1.412       .  A
C954        H959   1.083       .  S
C955        C956   1.412       .  A
C956        N957   1.428       .  S
N957        O961   1.261       .  A
N957        O962   1.261       .  A
N960        O964   1.262       .  A
N960        O963   1.261       .  A
C965        C966   1.416       .  A
C965        C970   1.403       .  A
C965        H972   1.083       .  S
C966        C967   1.412       .  A
C967        C968   1.404       .  A
C967        N974   1.427       .  S
C968        C969   1.411       .  A
C968        H973   1.084       .  S
C969        C970   1.409       .  A
C970        N971   1.429       .  S
N971        O975   1.262       .  A
N971        O976   1.262   1_565  A
N974        O978   1.262       .  A
N974        O977   1.261       .  A
C979        C980   1.402   1_545  A
C979        C984   1.392       .  A
C979        H986   1.082       .  S
C980        C981   1.405       .  A
C981        C982   1.394       .  A
C981        N988   1.429       .  S
C982        C983   1.401   1_565  A
C982        H987   1.082       .  S
C983        C984   1.405       .  A
C984        N985   1.429       .  S
N985        O989   1.262       .  A
N985        O990   1.262       .  A
N988        O992   1.262       .  A
N988        O991   1.262       .  A
C993        C994   1.409       .  A
C993        C998   1.398       .  A
C993       H1000   1.084       .  S
C994        C995   1.411       .  A
C995        C996   1.406       .  A
C995       N1002   1.429       .  S
C996        C997   1.412       .  A
C996       H1001   1.084       .  S
C997        C998   1.409       .  A
C998        N999   1.427       .  S
N999       O1003   1.261       .  A
N999       O1004   1.261       .  A
N1002      O1006   1.262       .  A
N1002      O1005   1.262       .  A
C1007      C1008   1.412       .  A
C1007      C1012   1.403   1_565  A
C1007      H1014   1.084       .  S
C1008      C1009   1.410       .  A
C1009      C1010   1.404   1_565  A
C1009      N1016   1.429       .  S
C1010      C1011   1.415       .  A
C1010      H1015   1.083       .  S
C1011      C1012   1.412       .  A
C1012      N1013   1.428       .  S
N1013      O1017   1.261       .  A
N1013      O1018   1.262       .  A
N1016      O1020   1.262       .  A
N1016      O1019   1.262       .  A
C1021      C1022   1.409       .  A
C1021      C1026   1.400       .  A
C1021      H1028   1.084       .  S
C1022      C1023   1.413   1_565  A
C1023      C1024   1.397       .  A
C1023      N1030   1.427       .  S
C1024      C1025   1.405       .  A
C1024      H1029   1.084       .  S
C1025      C1026   1.410   1_545  A
C1026      N1027   1.427       .  S
N1027      O1031   1.261       .  A
N1027      O1032   1.262       .  A
N1030      O1034   1.261       .  A
N1030      O1033   1.261       .  A
C1035      C1036   1.413       .  A
C1035      C1040   1.405       .  A
C1035      H1042   1.084       .  S
C1036      C1037   1.408       .  A
C1037      C1038   1.403       .  A
C1037      N1044   1.429       .  S
C1038      C1039   1.416       .  A
C1038      H1043   1.083       .  S
C1039      C1040   1.410       .  A
C1040      N1041   1.427       .  S
N1041      O1045   1.261       .  A
N1041      O1046   1.262   1_556  A
N1044      O1048   1.262   1_545  A
N1044      O1047   1.262       .  A
C1049      C1050   1.404       .  A
C1049      C1054   1.387       .  A
C1049      H1056   1.084       .  S
C1050      C1051   1.416       .  A
C1051      C1052   1.400       .  A
C1051      N1058   1.428       .  S
C1052      C1053   1.396       .  A
C1052      H1057   1.084       .  S
C1053      C1054   1.404       .  A
C1054      N1055   1.430       .  S
N1055      O1059   1.262       .  A
N1055      O1060   1.261       .  A
N1058      O1062   1.262       .  A
N1058      O1061   1.262   1_554  A
C1063      C1064   1.402       .  A
C1063      C1068   1.405       .  A
C1063      H1070   1.084       .  S
C1064      C1065   1.416       .  A
C1065      C1066   1.403       .  A
C1065      N1072   1.429       .  S
C1066      C1067   1.405       .  A
C1066      H1071   1.084       .  S
C1067      C1068   1.421       .  A
C1068      N1069   1.429       .  S
N1069      O1073   1.262       .  A
N1069      O1074   1.262       .  A
N1072      O1076   1.262       .  A
N1072      O1075   1.262       .  A
C1077      C1078   1.397       .  A
C1077      C1082   1.393       .  A
C1077      H1084   1.084       .  S
C1078      C1079   1.408       .  A
C1079      C1080   1.391       .  A
C1079      N1086   1.430       .  S
C1080      C1081   1.399       .  A
C1080      H1085   1.084       .  S
C1081      C1082   1.412       .  A
C1082      N1083   1.429       .  S
N1083      O1087   1.262       .  A
N1083      O1088   1.262       .  A
N1086      O1090   1.262       .  A
N1086      O1089   1.262       .  A
C1091      C1092   1.401       .  A
C1091      C1096   1.400       .  A
C1091      H1098   1.084       .  S
C1092      C1093   1.420       .  A
C1093      C1094   1.407       .  A
C1093      N1100   1.429       .  S
C1094      C1095   1.402       .  A
C1094      H1099   1.084       .  S
C1095      C1096   1.418       .  A
C1096      N1097   1.428       .  S
N1097      O1101   1.262       .  A
N1097      O1102   1.261       .  A
N1100      O1104   1.262       .  A
N1100      O1103   1.262       .  A
C1105      C1106   1.406       .  A
C1105      C1110   1.409   1_545  A
C1105      H1112   1.084       .  S
C1106      C1107   1.422       .  A
C1107      C1108   1.402   1_545  A
C1107      N1114   1.429       .  S
C1108      C1109   1.400       .  A
C1108      H1113   1.078       .  S
C1109      C1110   1.423       .  A
C1110      N1111   1.430       .  S
N1111      O1115   1.262       .  A
N1111      O1116   1.262       .  A
N1114      O1118   1.262       .  A
N1114      O1117   1.262       .  A
C1119      C1120   1.403   1_545  A
C1119      C1124   1.406       .  A
C1119      H1126   1.084       .  S
C1120      C1121   1.422       .  A
C1121      C1122   1.402       .  A
C1121      N1128   1.430       .  S
C1122      C1123   1.396   1_565  A
C1122      H1127   1.084       .  S
C1123      C1124   1.414       .  A
C1124      N1125   1.428       .  S
N1125      O1129   1.262       .  A
N1125      O1130   1.261       .  A
N1128      O1132   1.262       .  A
N1128      O1131   1.262       .  A
C1133      C1134   1.403       .  A
C1133      C1138   1.399       .  A
C1133      H1140   1.084       .  S
C1134      C1135   1.409       .  A
C1135      C1136   1.396       .  A
C1135      N1142   1.429       .  S
C1136      C1137   1.400       .  A
C1136      H1141   1.085       .  S
C1137      C1138   1.409       .  A
C1138      N1139   1.429       .  S
N1139      O1143   1.262       .  A
N1139      O1144   1.262       .  A
N1142      O1146   1.262       .  A
N1142      O1145   1.262       .  A
C1147      C1148   1.404       .  A
C1147      C1152   1.401       .  A
C1147      H1154   1.084       .  S
C1148      C1149   1.422       .  A
C1149      C1150   1.400       .  A
C1149      N1156   1.428       .  S
C1150      C1151   1.398       .  A
C1150      H1155   1.084       .  S
C1151      C1152   1.416       .  A
C1152      N1153   1.429       .  S
N1153      O1157   1.262       .  A
N1153      O1158   1.262       .  A
N1156      O1160   1.262       .  A
N1156      O1159   1.261       .  A
C1161      C1162   1.408       .  A
C1161      C1166   1.401       .  A
C1161      H1168   1.084       .  S
C1162      C1163   1.411       .  A
C1163      C1164   1.407       .  A
C1163      N1170   1.428       .  S
C1164      C1165   1.411       .  A
C1164      H1169   1.084       .  S
C1165      C1166   1.411       .  A
C1166      N1167   1.426       .  S
N1167      O1171   1.261       .  A
N1167      O1172   1.262       .  A
N1170      O1174   1.262       .  A
N1170      O1173   1.262       .  A
C1175      C1176   1.408       .  A
C1175      C1180   1.402   1_565  A
C1175      H1182   1.084       .  S
C1176      C1177   1.417   1_565  A
C1177      C1178   1.405       .  A
C1177      N1184   1.428       .  S
C1178      C1179   1.407       .  A
C1178      H1183   1.084       .  S
C1179      C1180   1.414       .  A
C1180      N1181   1.428   1_545  S
N1181      O1185   1.261       .  A
N1181      O1186   1.262       .  A
N1184      O1188   1.262       .  A
N1184      O1187   1.262       .  A
C1189      C1190   1.402       .  A
C1189      C1194   1.408       .  A
C1189      H1196   1.084       .  S
C1190      C1191   1.426       .  A
C1191      C1192   1.405       .  A
C1191      N1198   1.429       .  S
C1192      C1193   1.402       .  A
C1192      H1197   1.084       .  S
C1193      C1194   1.425       .  A
C1194      N1195   1.429       .  S
N1195      O1199   1.262       .  A
N1195      O1200   1.262       .  A
N1198      O1202   1.262       .  A
N1198      O1201   1.262       .  A
C1203      C1204   1.409       .  A
C1203      C1208   1.398       .  A
C1203      H1210   1.083       .  S
C1204      C1205   1.416       .  A
C1205      C1206   1.404       .  A
C1205      N1212   1.427       .  S
C1206      C1207   1.404       .  A
C1206      H1211   1.084       .  S
C1207      C1208   1.406       .  A
C1208      N1209   1.425       .  S
N1209      O1213   1.262       .  A
N1209      O1214   1.261       .  A
N1212      O1216   1.261       .  A
N1212      O1215   1.262       .  A
C1217      C1218   1.401       .  A
C1217      C1222   1.405       .  A
C1217      H1224   1.084       .  S
C1218      C1219   1.420       .  A
C1219      C1220   1.398       .  A
C1219      N1226   1.429       .  S
C1220      C1221   1.399       .  A
C1220      H1225   1.084       .  S
C1221      C1222   1.421       .  A
C1222      N1223   1.429       .  S
N1223      O1227   1.262       .  A
N1223      O1228   1.262       .  A
N1226      O1230   1.262       .  A
N1226      O1229   1.262       .  A
C1231      C1232   1.404   1_545  A
C1231      C1236   1.389       .  A
C1231      H1238   1.083       .  S
C1232      C1233   1.407       .  A
C1233      C1234   1.391       .  A
C1233      N1240   1.429       .  S
C1234      C1235   1.400   1_565  A
C1234      H1239   1.083       .  S
C1235      C1236   1.401       .  A
C1236      N1237   1.429       .  S
N1237      O1241   1.262       .  A
N1237      O1242   1.262       .  A
N1240      O1244   1.262       .  A
N1240      O1243   1.262       .  A
C1245      C1246   1.402       .  A
C1245      C1250   1.401       .  A
C1245      H1252   1.084       .  S
C1246      C1247   1.426       .  A
C1247      C1248   1.403       .  A
C1247      N1254   1.430       .  S
C1248      C1249   1.400       .  A
C1248      H1253   1.084       .  S
C1249      C1250   1.419       .  A
C1250      N1251   1.429       .  S
N1251      O1255   1.262   1_554  A
N1251      O1256   1.262   1_554  A
N1254      O1258   1.262       .  A
N1254      O1257   1.262       .  A
C1259      C1260   1.407   1_556  A
C1259      C1264   1.403   1_565  A
C1259      H1266   1.084       .  S
C1260      C1261   1.418   1_565  A
C1261      C1262   1.411       .  A
C1261      N1268   1.428       .  S
C1262      C1263   1.409   1_554  A
C1262      H1267   1.084       .  S
C1263      C1264   1.416       .  A
C1264      N1265   1.428       .  S
N1265      O1269   1.262       .  A
N1265      O1270   1.262   1_545  A
N1268      O1272   1.262       .  A
N1268      O1271   1.262       .  A
C1273      C1274   1.413       .  A
C1273      C1278   1.403       .  A
C1273      H1280   1.083       .  S
C1274      C1275   1.414       .  A
C1275      C1276   1.403       .  A
C1275      N1282   1.427       .  S
C1276      C1277   1.406       .  A
C1276      H1281   1.084       .  S
C1277      C1278   1.407       .  A
C1278      N1279   1.427       .  S
N1279      O1283   1.261       .  A
N1279      O1284   1.262       .  A
N1282      O1286   1.262       .  A
N1282      O1285   1.262       .  A
C1287      C1288   1.407       .  A
C1287      C1292   1.406       .  A
C1287      H1294   1.084       .  S
C1288      C1289   1.417       .  A
C1289      C1290   1.402       .  A
C1289      N1296   1.428       .  S
C1290      C1291   1.405       .  A
C1290      H1295   1.084       .  S
C1291      C1292   1.415       .  A
C1292      N1293   1.428       .  S
N1293      O1297   1.262       .  A
N1293      O1298   1.262       .  A
N1296      O1300   1.262       .  A
N1296      O1299   1.261       .  A
C1301      C1302   1.404   1_556  A
C1301      C1306   1.397       .  A
C1301      H1308   1.084       .  S
C1302      C1303   1.409       .  A
C1303      C1304   1.403       .  A
C1303      N1310   1.428       .  S
C1304      C1305   1.410       .  A
C1304      H1309   1.084       .  S
C1305      C1306   1.412   1_554  A
C1306      N1307   1.426       .  S
N1307      O1311   1.261       .  A
N1307      O1312   1.262       .  A
N1310      O1314   1.262       .  A
N1310      O1313   1.262       .  A
C1315      C1316   1.403       .  A
C1315      C1320   1.396       .  A
C1315      H1322   1.082       .  S
C1316      C1317   1.410       .  A
C1317      C1318   1.394       .  A
C1317      N1324   1.429       .  S
C1318      C1319   1.399       .  A
C1318      H1323   1.085       .  S
C1319      C1320   1.406       .  A
C1320      N1321   1.429       .  S
N1321      O1325   1.262       .  A
N1321      O1326   1.262       .  A
N1324      O1328   1.262       .  A
N1324      O1327   1.262       .  A
C1329      C1330   1.409       .  A
C1329      C1334   1.405       .  A
C1329      H1336   1.084       .  S
C1330      C1331   1.415       .  A
C1331      C1332   1.404       .  A
C1331      N1338   1.427       .  S
C1332      C1333   1.407       .  A
C1332      H1337   1.084       .  S
C1333      C1334   1.414       .  A
C1334      N1335   1.428       .  S
N1335      O1339   1.261       .  A
N1335      O1340   1.262       .  A
N1338      O1342   1.261       .  A
N1338      O1341   1.262       .  A
C1343      C1344   1.396       .  A
C1343      C1348   1.401       .  A
C1343      H1350   1.084       .  S
C1344      C1345   1.413       .  A
C1345      C1346   1.412       .  A
C1345      N1352   1.430       .  S
C1346      C1347   1.408       .  A
C1346      H1351   1.083       .  S
C1347      C1348   1.425       .  A
C1348      N1349   1.430       .  S
N1349      O1353   1.262       .  A
N1349      O1354   1.262       .  A
N1352      O1356   1.262       .  A
N1352      O1355   1.262       .  A
C1357      C1358   1.412       .  A
C1357      C1362   1.403       .  A
C1357      H1364   1.084       .  S
C1358      C1359   1.410       .  A
C1359      C1360   1.400       .  A
C1359      N1366   1.429       .  S
C1360      C1361   1.410       .  A
C1360      H1365   1.083       .  S
C1361      C1362   1.412       .  A
C1362      N1363   1.430       .  S
N1363      O1367   1.262       .  A
N1363      O1368   1.262       .  A
N1366      O1370   1.261       .  A
N1366      O1369   1.262       .  A
C1371      C1372   1.403       .  A
C1371      C1376   1.400       .  A
C1371      H1378   1.084       .  S
C1372      C1373   1.420       .  A
C1373      C1374   1.406       .  A
C1373      N1380   1.429       .  S
C1374      C1375   1.402       .  A
C1374      H1379   1.084       .  S
C1375      C1376   1.415       .  A
C1376      N1377   1.429       .  S
N1377      O1381   1.262       .  A
N1377      O1382   1.262       .  A
N1380      O1384   1.262       .  A
N1380      O1383   1.262       .  A
C1385      C1386   1.405       .  A
C1385      C1390   1.396       .  A
C1385      H1392   1.083       .  S
C1386      C1387   1.411       .  A
C1387      C1388   1.393       .  A
C1387      N1394   1.429       .  S
C1388      C1389   1.398       .  A
C1388      H1393   1.085       .  S
C1389      C1390   1.405       .  A
C1390      N1391   1.428       .  S
N1391      O1395   1.262       .  A
N1391      O1396   1.262       .  A
N1394      O1398   1.262       .  A
N1394      O1397   1.262       .  A
C1399      C1400   1.409       .  A
C1399      C1404   1.404       .  A
C1399      H1406   1.084       .  S
C1400      C1401   1.409       .  A
C1401      C1402   1.396       .  A
C1401      N1408   1.426       .  S
C1402      C1403   1.407       .  A
C1402      H1407   1.084       .  S
C1403      C1404   1.413       .  A
C1404      N1405   1.428       .  S
N1405      O1409   1.262       .  A
N1405      O1410   1.262       .  A
N1408      O1412   1.261   1_556  A
N1408      O1411   1.262       .  A
C1413      C1414   1.413       .  A
C1413      C1418   1.400       .  A
C1413      H1420   1.083       .  S
C1414      C1415   1.411       .  A
C1415      C1416   1.401       .  A
C1415      N1422   1.429       .  S
C1416      C1417   1.413       .  A
C1416      H1421   1.083       .  S
C1417      C1418   1.409       .  A
C1418      N1419   1.428       .  S
N1419      O1423   1.262   1_554  A
N1419      O1424   1.262   1_554  A
N1422      O1426   1.261       .  A
N1422      O1425   1.262       .  A
C1427      C1428   1.410       .  A
C1427      C1432   1.398       .  A
C1427      H1434   1.084       .  S
C1428      C1429   1.410       .  A
C1429      C1430   1.398       .  A
C1429      N1436   1.428       .  S
C1430      C1431   1.408       .  A
C1430      H1435   1.084       .  S
C1431      C1432   1.410       .  A
C1432      N1433   1.430       .  S
N1433      O1437   1.262       .  A
N1433      O1438   1.261       .  A
N1436      O1440   1.262       .  A
N1436      O1439   1.262       .  A
C1441      C1442   1.405       .  A
C1441      C1446   1.400       .  A
C1441      H1448   1.084       .  S
C1442      C1443   1.422       .  A
C1443      C1444   1.404       .  A
C1443      N1450   1.429       .  S
C1444      C1445   1.401       .  A
C1444      H1449   1.084       .  S
C1445      C1446   1.413       .  A
C1446      N1447   1.429       .  S
N1447      O1451   1.262       .  A
N1447      O1452   1.262       .  A
N1450      O1454   1.262       .  A
N1450      O1453   1.262       .  A
C1455      C1456   1.397       .  A
C1455      C1460   1.391       .  A
C1455      H1462   1.084       .  S
C1456      C1457   1.402       .  A
C1457      C1458   1.394       .  A
C1457      N1464   1.428       .  S
C1458      C1459   1.405       .  A
C1458      H1463   1.084       .  S
C1459      C1460   1.411       .  A
C1460      N1461   1.430       .  S
N1461      O1465   1.262       .  A
N1461      O1466   1.262       .  A
N1464      O1468   1.262       .  A
N1464      O1467   1.262       .  A
C1469      C1470   1.412       .  A
C1469      C1474   1.402       .  A
C1469      H1476   1.083       .  S
C1470      C1471   1.416       .  A
C1471      C1472   1.406       .  A
C1471      N1478   1.429       .  S
C1472      C1473   1.411       .  A
C1472      H1477   1.084       .  S
C1473      C1474   1.412       .  A
C1474      N1475   1.429       .  S
N1475      O1479   1.262       .  A
N1475      O1480   1.261       .  A
N1478      O1482   1.261       .  A
N1478      O1481   1.262       .  A
C1483      C1484   1.409       .  A
C1483      C1488   1.402       .  A
C1483      H1490   1.084       .  S
C1484      C1485   1.406       .  A
C1485      C1486   1.402       .  A
C1485      N1492   1.427       .  S
C1486      C1487   1.412       .  A
C1486      H1491   1.084       .  S
C1487      C1488   1.413       .  A
C1488      N1489   1.428       .  S
N1489      O1493   1.262       .  A
N1489      O1494   1.262       .  A
N1492      O1496   1.262       .  A
N1492      O1495   1.262       .  A
C1497      C1498   1.406       .  A
C1497      C1502   1.404       .  A
C1497      H1504   1.084       .  S
C1498      C1499   1.418   1_556  A
C1499      C1500   1.403       .  A
C1499      N1506   1.429       .  S
C1500      C1501   1.407       .  A
C1500      H1505   1.084       .  S
C1501      C1502   1.418   1_554  A
C1502      N1503   1.429       .  S
N1503      O1507   1.262       .  A
N1503      O1508   1.262       .  A
N1506      O1510   1.262       .  A
N1506      O1509   1.262       .  A
C1511      C1512   1.402       .  A
C1511      C1516   1.405       .  A
C1511      H1518   1.084       .  S
C1512      C1513   1.418       .  A
C1513      C1514   1.402       .  A
C1513      N1520   1.429       .  S
C1514      C1515   1.402       .  A
C1514      H1519   1.084       .  S
C1515      C1516   1.420       .  A
C1516      N1517   1.429       .  S
N1517      O1521   1.262       .  A
N1517      O1522   1.262       .  A
N1520      O1524   1.261       .  A
N1520      O1523   1.262       .  A
C1525      C1526   1.412       .  A
C1525      C1530   1.402       .  A
C1525      H1532   1.084       .  S
C1526      C1527   1.411       .  A
C1527      C1528   1.402       .  A
C1527      N1534   1.429       .  S
C1528      C1529   1.408       .  A
C1528      H1533   1.084       .  S
C1529      C1530   1.407       .  A
C1530      N1531   1.428       .  S
N1531      O1535   1.262       .  A
N1531      O1536   1.262       .  A
N1534      O1538   1.262       .  A
N1534      O1537   1.262       .  A
C1539      C1540   1.407       .  A
C1539      C1544   1.400       .  A
C1539      H1546   1.084       .  S
C1540      C1541   1.416       .  A
C1541      C1542   1.407       .  A
C1541      N1548   1.428       .  S
C1542      C1543   1.408       .  A
C1542      H1547   1.084       .  S
C1543      C1544   1.415       .  A
C1544      N1545   1.429       .  S
N1545      O1549   1.262       .  A
N1545      O1550   1.262       .  A
N1548      O1552   1.262       .  A
N1548      O1551   1.262       .  A
C1553      C1554   1.405       .  A
C1553      C1558   1.381       .  A
C1553      H1560   1.084       .  S
C1554      C1555   1.415       .  A
C1555      C1556   1.398       .  A
C1555      N1562   1.428       .  S
C1556      C1557   1.397       .  A
C1556      H1561   1.083       .  S
C1557      C1558   1.399       .  A
C1558      N1559   1.431       .  S
N1559      O1563   1.262       .  A
N1559      O1564   1.262       .  A
N1562      O1566   1.262       .  A
N1562      O1565   1.262       .  A
C1567      C1568   1.404       .  A
C1567      C1572   1.400       .  A
C1567      H1574   1.084       .  S
C1568      C1569   1.421       .  A
C1569      C1570   1.399       .  A
C1569      N1576   1.430       .  S
C1570      C1571   1.400       .  A
C1570      H1575   1.084       .  S
C1571      C1572   1.415       .  A
C1572      N1573   1.429       .  S
N1573      O1577   1.262       .  A
N1573      O1578   1.262       .  A
N1576      O1580   1.262       .  A
N1576      O1579   1.262       .  A
C1581      C1582   1.400       .  A
C1581      C1586   1.398       .  A
C1581      H1588   1.084       .  S
C1582      C1583   1.419       .  A
C1583      C1584   1.402       .  A
C1583      N1590   1.429       .  S
C1584      C1585   1.400       .  A
C1584      H1589   1.084       .  S
C1585      C1586   1.421       .  A
C1586      N1587   1.430       .  S
N1587      O1591   1.262       .  A
N1587      O1592   1.262       .  A
N1590      O1594   1.262       .  A
N1590      O1593   1.262       .  A
C1595      C1596   1.409       .  A
C1595      C1600   1.401       .  A
C1595      H1602   1.084       .  S
C1596      C1597   1.414       .  A
C1597      C1598   1.402       .  A
C1597      N1604   1.425       .  S
C1598      C1599   1.404       .  A
C1598      H1603   1.084       .  S
C1599      C1600   1.409       .  A
C1600      N1601   1.427       .  S
N1601      O1605   1.261       .  A
N1601      O1606   1.262       .  A
N1604      O1608   1.261       .  A
N1604      O1607   1.262       .  A
C1609      C1610   1.406       .  A
C1609      C1614   1.399       .  A
C1609      H1616   1.083       .  S
C1610      C1611   1.416       .  A
C1611      C1612   1.401       .  A
C1611      N1618   1.429       .  S
C1612      C1613   1.408       .  A
C1612      H1617   1.084       .  S
C1613      C1614   1.415       .  A
C1614      N1615   1.428       .  S
N1615      O1619   1.262       .  A
N1615      O1620   1.262       .  A
N1618      O1622   1.261       .  A
N1618      O1621   1.262       .  A
C1623      C1624   1.414       .  A
C1623      C1628   1.404       .  A
C1623      H1630   1.083       .  S
C1624      C1625   1.414   1_556  A
C1625      C1626   1.405       .  A
C1625      N1632   1.428       .  S
C1626      C1627   1.408   1_554  A
C1626      H1631   1.084       .  S
C1627      C1628   1.408       .  A
C1628      N1629   1.429       .  S
N1629      O1633   1.262       .  A
N1629      O1634   1.262       .  A
N1632      O1636   1.262       .  A
N1632      O1635   1.262       .  A
C1637      C1638   1.415       .  A
C1637      C1642   1.402       .  A
C1637      H1644   1.083       .  S
C1638      C1639   1.413       .  A
C1639      C1640   1.403       .  A
C1639      N1646   1.428       .  S
C1640      C1641   1.408       .  A
C1640      H1645   1.084       .  S
C1641      C1642   1.408       .  A
C1642      N1643   1.428       .  S
N1643      O1647   1.262   1_556  A
N1643      O1648   1.262       .  A
N1646      O1650   1.262       .  A
N1646      O1649   1.261       .  A
C1651      C1652   1.398       .  A
C1651      C1656   1.395       .  A
C1651      H1658   1.084       .  S
C1652      C1653   1.408       .  A
C1653      C1654   1.394       .  A
C1653      N1660   1.429       .  S
C1654      C1655   1.400       .  A
C1654      H1659   1.084       .  S
C1655      C1656   1.411       .  A
C1656      N1657   1.429       .  S
N1657      O1661   1.262   1_554  A
N1657      O1662   1.262   1_554  A
N1660      O1664   1.261       .  A
N1660      O1663   1.262       .  A
C1665      C1666   1.407       .  A
C1665      C1670   1.403       .  A
C1665      H1672   1.083       .  S
C1666      C1667   1.416       .  A
C1667      C1668   1.403       .  A
C1667      N1674   1.429       .  S
C1668      C1669   1.408       .  A
C1668      H1673   1.083       .  S
C1669      C1670   1.417       .  A
C1670      N1671   1.429       .  S
N1671      O1675   1.262       .  A
N1671      O1676   1.262       .  A
N1674      O1678   1.262       .  A
N1674      O1677   1.262       .  A
C1679      C1680   1.409       .  A
C1679      C1684   1.400       .  A
C1679      H1686   1.083       .  S
C1680      C1681   1.409       .  A
C1681      C1682   1.401       .  A
C1681      N1688   1.428       .  S
C1682      C1683   1.410       .  A
C1682      H1687   1.083       .  S
C1683      C1684   1.411       .  A
C1684      N1685   1.428       .  S
N1685      O1689   1.261       .  A
N1685      O1690   1.261       .  A
N1688      O1692   1.262       .  A
N1688      O1691   1.262       .  A
C1693      C1694   1.405       .  A
C1693      C1698   1.403       .  A
C1693      H1700   1.084       .  S
C1694      C1695   1.420       .  A
C1695      C1696   1.406       .  A
C1695      N1702   1.429       .  S
C1696      C1697   1.403       .  A
C1696      H1701   1.084       .  S
C1697      C1698   1.417       .  A
C1698      N1699   1.430       .  S
N1699      O1703   1.262       .  A
N1699      O1704   1.262       .  A
N1702      O1706   1.262       .  A
N1702      O1705   1.262       .  A
C1707      C1708   1.403       .  A
C1707      C1712   1.404       .  A
C1707      H1714   1.084       .  S
C1708      C1709   1.426       .  A
C1709      C1710   1.403       .  A
C1709      N1716   1.430       .  S
C1710      C1711   1.399       .  A
C1710      H1715   1.084       .  S
C1711      C1712   1.417       .  A
C1712      N1713   1.429       .  S
N1713      O1717   1.262       .  A
N1713      O1718   1.262       .  A
N1716      O1720   1.262       .  A
N1716      O1719   1.262       .  A
C1721      C1722   1.396       .  A
C1721      C1726   1.398       .  A
C1721      H1728   1.084       .  S
C1722      C1723   1.411       .  A
C1723      C1724   1.402       .  A
C1723      N1730   1.428       .  S
C1724      C1725   1.404       .  A
C1724      H1729   1.084       .  S
C1725      C1726   1.419       .  A
C1726      N1727   1.430       .  S
N1727      O1731   1.262       .  A
N1727      O1732   1.262       .  A
N1730      O1734   1.261       .  A
N1730      O1733   1.261       .  A
C1735      C1736   1.410       .  A
C1735      C1740   1.403       .  A
C1735      H1742   1.084       .  S
C1736      C1737   1.416       .  A
C1737      C1738   1.402       .  A
C1737      N1744   1.429       .  S
C1738      C1739   1.407       .  A
C1738      H1743   1.084       .  S
C1739      C1740   1.410       .  A
C1740      N1741   1.428       .  S
N1741      O1745   1.262       .  A
N1741      O1746   1.262       .  A
N1744      O1748   1.262       .  A
N1744      O1747   1.262       .  A
C1749      C1750   1.399       .  A
C1749      C1754   1.393       .  A
C1749      H1756   1.084       .  S
C1750      C1751   1.414       .  A
C1751      C1752   1.395       .  A
C1751      N1758   1.429       .  S
C1752      C1753   1.396       .  A
C1752      H1757   1.084       .  S
C1753      C1754   1.409       .  A
C1754      N1755   1.429       .  S
N1755      O1759   1.262       .  A
N1755      O1760   1.262       .  A
N1758      O1762   1.262       .  A
N1758      O1761   1.262       .  A
C1763      C1764   1.400       .  A
C1763      C1768   1.405       .  A
C1763      H1770   1.084       .  S
C1764      C1765   1.421       .  A
C1765      C1766   1.407       .  A
C1765      N1772   1.428       .  S
C1766      C1767   1.402       .  A
C1766      H1771   1.084       .  S
C1767      C1768   1.429       .  A
C1768      N1769   1.430       .  S
N1769      O1773   1.262       .  A
N1769      O1774   1.262       .  A
N1772      O1776   1.262       .  A
N1772      O1775   1.262       .  A
C1777      C1778   1.407       .  A
C1777      C1782   1.402       .  A
C1777      H1784   1.084       .  S
C1778      C1779   1.408       .  A
C1779      C1780   1.404       .  A
C1779      N1786   1.427       .  S
C1780      C1781   1.412       .  A
C1780      H1785   1.084       .  S
C1781      C1782   1.413       .  A
C1782      N1783   1.427       .  S
N1783      O1787   1.262       .  A
N1783      O1788   1.261       .  A
N1786      O1790   1.262       .  A
N1786      O1789   1.262       .  A
C1791      C1792   1.406       .  A
C1791      C1796   1.402       .  A
C1791      H1798   1.084       .  S
C1792      C1793   1.412       .  A
C1793      C1794   1.406       .  A
C1793      N1800   1.429       .  S
C1794      C1795   1.412       .  A
C1794      H1799   1.084       .  S
C1795      C1796   1.414       .  A
C1796      N1797   1.428       .  S
N1797      O1801   1.262       .  A
N1797      O1802   1.262       .  A
N1800      O1804   1.262       .  A
N1800      O1803   1.262       .  A
C1805      C1806   1.401       .  A
C1805      C1810   1.393   1_655  A
C1805      H1812   1.084   1_655  S
C1806      C1807   1.405       .  A
C1807      C1808   1.394       .  A
C1807      N1814   1.429       .  S
C1808      C1809   1.403   1_655  A
C1808      H1813   1.084       .  S
C1809      C1810   1.406       .  A
C1810      N1811   1.428       .  S
N1811      O1815   1.262       .  A
N1811      O1816   1.262       .  A
N1814      O1818   1.262       .  A
N1814      O1817   1.262       .  A
C1819      C1820   1.407   1_556  A
C1819      C1824   1.401       .  A
C1819      H1826   1.084       .  S
C1820      C1821   1.412       .  A
C1821      C1822   1.408       .  A
C1821      N1828   1.428       .  S
C1822      C1823   1.411       .  A
C1822      H1827   1.084       .  S
C1823      C1824   1.412   1_554  A
C1824      N1825   1.426       .  S
N1825      O1829   1.261       .  A
N1825      O1830   1.262       .  A
N1828      O1832   1.262       .  A
N1828      O1831   1.262       .  A
C1833      C1834   1.408   1_554  A
C1833      C1838   1.407       .  A
C1833      H1840   1.084       .  S
C1834      C1835   1.419       .  A
C1835      C1836   1.404       .  A
C1835      N1842   1.428       .  S
C1836      C1837   1.402       .  A
C1836      H1841   1.084       .  S
C1837      C1838   1.417   1_556  A
C1838      N1839   1.430       .  S
N1839      O1843   1.262       .  A
N1839      O1844   1.262       .  A
N1842      O1846   1.262       .  A
N1842      O1845   1.262   1_455  A
C1847      C1848   1.406       .  A
C1847      C1852   1.402       .  A
C1847      H1854   1.083       .  S
C1848      C1849   1.414       .  A
C1849      C1850   1.401       .  A
C1849      N1856   1.429       .  S
C1850      C1851   1.406       .  A
C1850      H1855   1.082       .  S
C1851      C1852   1.413       .  A
C1852      N1853   1.428       .  S
N1853      O1857   1.262       .  A
N1853      O1858   1.262       .  A
N1856      O1860   1.262       .  A
N1856      O1859   1.262       .  A
C1861      C1862   1.404       .  A
C1861      C1866   1.407       .  A
C1861      H1868   1.084       .  S
C1862      C1863   1.426       .  A
C1863      C1864   1.402       .  A
C1863      N1870   1.429       .  S
C1864      C1865   1.400       .  A
C1864      H1869   1.084       .  S
C1865      C1866   1.423       .  A
C1866      N1867   1.429       .  S
N1867      O1871   1.262       .  A
N1867      O1872   1.262       .  A
N1870      O1874   1.262   1_454  A
N1870      O1873   1.262   1_554  A
C1875      C1876   1.411       .  A
C1875      C1880   1.399       .  A
C1875      H1882   1.083       .  S
C1876      C1877   1.415       .  A
C1877      C1878   1.404       .  A
C1877      N1884   1.427       .  S
C1878      C1879   1.406       .  A
C1878      H1883   1.084       .  S
C1879      C1880   1.406       .  A
C1880      N1881   1.427       .  S
N1881      O1885   1.262       .  A
N1881      O1886   1.262       .  A
N1884      O1888   1.261       .  A
N1884      O1887   1.261       .  A
C1889      C1890   1.402       .  A
C1889      C1894   1.408       .  A
C1889      H1896   1.084       .  S
C1890      C1891   1.419       .  A
C1891      C1892   1.405       .  A
C1891      N1898   1.429       .  S
C1892      C1893   1.402       .  A
C1892      H1897   1.084       .  S
C1893      C1894   1.424       .  A
C1894      N1895   1.430       .  S
N1895      O1899   1.262       .  A
N1895      O1900   1.262       .  A
N1898      O1902   1.262       .  A
N1898      O1901   1.262       .  A
C1903      C1904   1.405       .  A
C1903      C1908   1.403       .  A
C1903      H1910   1.084       .  S
C1904      C1905   1.415       .  A
C1905      C1906   1.405       .  A
C1905      N1912   1.429       .  S
C1906      C1907   1.406       .  A
C1906      H1911   1.084       .  S
C1907      C1908   1.414       .  A
C1908      N1909   1.428       .  S
N1909      O1913   1.262       .  A
N1909      O1914   1.262       .  A
N1912      O1916   1.262       .  A
N1912      O1915   1.262       .  A
C1917      C1918   1.397       .  A
C1917      C1922   1.392       .  A
C1917      H1924   1.084       .  S
C1918      C1919   1.411       .  A
C1919      C1920   1.394       .  A
C1919      N1926   1.429       .  S
C1920      C1921   1.397       .  A
C1920      H1925   1.084       .  S
C1921      C1922   1.410       .  A
C1922      N1923   1.429   1_556  S
N1923      O1927   1.261       .  A
N1923      O1928   1.262       .  A
N1926      O1930   1.262       .  A
N1926      O1929   1.262       .  A
C1931      C1932   1.406       .  A
C1931      C1936   1.399       .  A
C1931      H1938   1.083       .  S
C1932      C1933   1.406   1_655  A
C1933      C1934   1.398       .  A
C1933      N1940   1.428       .  S
C1934      C1935   1.411       .  A
C1934      H1939   1.083       .  S
C1935      C1936   1.413   1_455  A
C1936      N1937   1.428       .  S
N1937      O1941   1.262       .  A
N1937      O1942   1.262       .  A
N1940      O1944   1.262       .  A
N1940      O1943   1.262       .  A
C1945      C1946   1.405       .  A
C1945      C1950   1.400       .  A
C1945      H1952   1.084       .  S
C1946      C1947   1.410       .  A
C1947      C1948   1.403       .  A
C1947      N1954   1.428       .  S
C1948      C1949   1.411       .  A
C1948      H1953   1.084       .  S
C1949      C1950   1.412       .  A
C1950      N1951   1.426       .  S
N1951      O1955   1.262       .  A
N1951      O1956   1.261       .  A
N1954      O1958   1.262       .  A
N1954      O1957   1.262       .  A
C1959      C1960   1.411       .  A
C1959      C1964   1.406       .  A
C1959      H1966   1.084       .  S
C1960      C1961   1.410       .  A
C1961      C1962   1.399       .  A
C1961      N1968   1.426       .  S
C1962      C1963   1.408       .  A
C1962      H1967   1.084       .  S
C1963      C1964   1.410       .  A
C1964      N1965   1.427       .  S
N1965      O1969   1.262       .  A
N1965      O1970   1.262       .  A
N1968      O1972   1.261       .  A
N1968      O1971   1.262       .  A
C1973      C1974   1.408       .  A
C1973      C1978   1.403       .  A
C1973      H1980   1.084       .  S
C1974      C1975   1.416       .  A
C1975      C1976   1.401       .  A
C1975      N1982   1.426       .  S
C1976      C1977   1.405       .  A
C1976      H1981   1.084       .  S
C1977      C1978   1.415       .  A
C1978      N1979   1.427       .  S
N1979      O1983   1.262       .  A
N1979      O1984   1.262       .  A
N1982      O1986   1.261       .  A
N1982      O1985   1.262       .  A
C1987      C1988   1.394       .  A
C1987      C1992   1.399       .  A
C1987      H1994   1.084   1_655  S
C1988      C1989   1.412       .  A
C1989      C1990   1.410       .  A
C1989      N1996   1.429       .  S
C1990      C1991   1.407       .  A
C1990      H1995   1.083       .  S
C1991      C1992   1.425       .  A
C1992      N1993   1.430       .  S
N1993      O1997   1.262       .  A
N1993      O1998   1.262   1_655  A
N1996      O2000   1.261       .  A
N1996      O1999   1.262       .  A
C2001      C2002   1.396       .  A
C2001      C2006   1.397       .  A
C2001      H2008   1.084       .  S
C2002      C2003   1.419       .  A
C2003      C2004   1.404       .  A
C2003      N2010   1.429       .  S
C2004      C2005   1.404       .  A
C2004      H2009   1.084       .  S
C2005      C2006   1.422       .  A
C2006      N2007   1.426       .  S
N2007      O2011   1.261       .  A
N2007      O2012   1.262       .  A
N2010      O2014   1.262       .  A
N2010      O2013   1.262       .  A
C2015      C2016   1.408       .  A
C2015      C2020   1.400       .  A
C2015      H2022   1.084       .  S
C2016      C2017   1.409       .  A
C2017      C2018   1.403       .  A
C2017      N2024   1.427       .  S
C2018      C2019   1.410       .  A
C2018      H2023   1.084       .  S
C2019      C2020   1.411       .  A
C2020      N2021   1.427       .  S
N2021      O2025   1.262       .  A
N2021      O2026   1.261       .  A
N2024      O2028   1.262       .  A
N2024      O2027   1.262       .  A
C2029      C2030   1.405       .  A
C2029      C2034   1.407   1_455  A
C2029      H2036   1.083       .  S
C2030      C2031   1.424       .  A
C2031      C2032   1.402   1_455  A
C2031      N2038   1.429       .  S
C2032      C2033   1.399       .  A
C2032      H2037   1.082       .  S
C2033      C2034   1.422       .  A
C2034      N2035   1.430       .  S
N2035      O2039   1.262       .  A
N2035      O2040   1.262       .  A
N2038      O2042   1.262       .  A
N2038      O2041   1.262       .  A
C2043      C2044   1.403       .  A
C2043      C2048   1.396       .  A
C2043      H2050   1.080       .  S
C2044      C2045   1.407       .  A
C2045      C2046   1.392       .  A
C2045      N2052   1.429       .  S
C2046      C2047   1.400       .  A
C2046      H2051   1.085       .  S
C2047      C2048   1.404       .  A
C2048      N2049   1.429       .  S
N2049      O2053   1.262       .  A
N2049      O2054   1.262       .  A
N2052      O2056   1.262       .  A
N2052      O2055   1.262       .  A
C2057      C2058   1.407       .  A
C2057      C2062   1.408       .  A
C2057      H2064   1.084       .  S
C2058      C2059   1.419       .  A
C2059      C2060   1.403       .  A
C2059      N2066   1.428       .  S
C2060      C2061   1.404       .  A
C2060      H2065   1.084       .  S
C2061      C2062   1.420       .  A
C2062      N2063   1.429       .  S
N2063      O2067   1.262       .  A
N2063      O2068   1.262       .  A
N2066      O2070   1.262       .  A
N2066      O2069   1.262       .  A
C2071      C2072   1.409       .  A
C2071      C2076   1.405       .  A
C2071      H2078   1.084       .  S
C2072      C2073   1.410       .  A
C2073      C2074   1.400       .  A
C2073      N2080   1.425       .  S
C2074      C2075   1.408       .  A
C2074      H2079   1.084       .  S
C2075      C2076   1.412       .  A
C2076      N2077   1.427       .  S
N2077      O2081   1.262       .  A
N2077      O2082   1.262       .  A
N2080      O2084   1.261       .  A
N2080      O2083   1.262       .  A
C2085      C2086   1.410       .  A
C2085      C2090   1.401       .  A
C2085      H2092   1.084       .  S
C2086      C2087   1.412       .  A
C2087      C2088   1.401       .  A
C2087      N2094   1.427       .  S
C2088      C2089   1.407       .  A
C2088      H2093   1.084       .  S
C2089      C2090   1.406       .  A
C2090      N2091   1.427       .  S
N2091      O2095   1.262       .  A
N2091      O2096   1.262       .  A
N2094      O2098   1.262       .  A
N2094      O2097   1.261       .  A
C2099      C2100   1.408       .  A
C2099      C2104   1.408       .  A
C2099      H2106   1.084       .  S
C2100      C2101   1.418       .  A
C2101      C2102   1.404       .  A
C2101      N2108   1.429       .  S
C2102      C2103   1.407       .  A
C2102      H2107   1.084       .  S
C2103      C2104   1.419       .  A
C2104      N2105   1.429       .  S
N2105      O2109   1.262       .  A
N2105      O2110   1.262       .  A
N2108      O2112   1.262       .  A
N2108      O2111   1.262       .  A
C2113      C2114   1.400       .  A
C2113      C2118   1.406       .  A
C2113      H2120   1.084       .  S
C2114      C2115   1.418   1_556  A
C2115      C2116   1.404       .  A
C2115      N2122   1.429       .  S
C2116      C2117   1.404   1_554  A
C2116      H2121   1.084       .  S
C2117      C2118   1.423       .  A
C2118      N2119   1.429       .  S
N2119      O2123   1.262       .  A
N2119      O2124   1.262       .  A
N2122      O2126   1.262       .  A
N2122      O2125   1.262       .  A
C2127      C2128   1.410       .  A
C2127      C2132   1.406       .  A
C2127      H2134   1.084       .  S
C2128      C2129   1.411   1_554  A
C2129      C2130   1.401       .  A
C2129      N2136   1.429       .  S
C2130      C2131   1.410   1_556  A
C2130      H2135   1.084       .  S
C2131      C2132   1.412       .  A
C2132      N2133   1.428       .  S
N2133      O2137   1.262       .  A
N2133      O2138   1.262       .  A
N2136      O2140   1.262       .  A
N2136      O2139   1.262       .  A
C2141      C2142   1.401       .  A
C2141      C2146   1.392       .  A
C2141      H2148   1.085       .  S
C2142      C2143   1.408       .  A
C2143      C2144   1.393       .  A
C2143      N2150   1.429       .  S
C2144      C2145   1.401       .  A
C2144      H2149   1.084       .  S
C2145      C2146   1.405       .  A
C2146      N2147   1.429       .  S
N2147      O2151   1.262       .  A
N2147      O2152   1.262       .  A
N2150      O2154   1.262       .  A
N2150      O2153   1.262       .  A
C2155      C2156   1.409       .  A
C2155      C2160   1.406       .  A
C2155      H2162   1.084       .  S
C2156      C2157   1.414       .  A
C2157      C2158   1.402       .  A
C2157      N2164   1.428       .  S
C2158      C2159   1.409       .  A
C2158      H2163   1.083       .  S
C2159      C2160   1.416       .  A
C2160      N2161   1.429       .  S
N2161      O2165   1.262       .  A
N2161      O2166   1.262       .  A
N2164      O2168   1.262       .  A
N2164      O2167   1.262       .  A
C2169      C2170   1.407       .  A
C2169      C2174   1.398       .  A
C2169      H2176   1.084       .  S
C2170      C2171   1.411       .  A
C2171      C2172   1.398       .  A
C2171      N2178   1.426       .  S
C2172      C2173   1.406       .  A
C2172      H2177   1.084       .  S
C2173      C2174   1.410       .  A
C2174      N2175   1.427       .  S
N2175      O2179   1.261       .  A
N2175      O2180   1.261       .  A
N2178      O2182   1.261       .  A
N2178      O2181   1.262       .  A
C2183      C2184   1.407       .  A
C2183      C2188   1.410       .  A
C2183      H2190   1.083       .  S
C2184      C2185   1.422       .  A
C2185      C2186   1.409       .  A
C2185      N2192   1.429       .  S
C2186      C2187   1.404       .  A
C2186      H2191   1.084       .  S
C2187      C2188   1.418       .  A
C2188      N2189   1.429       .  S
N2189      O2193   1.262       .  A
N2189      O2194   1.262       .  A
N2192      O2196   1.262       .  A
N2192      O2195   1.262       .  A
C2197      C2198   1.410       .  A
C2197      C2202   1.406       .  A
C2197      H2204   1.084       .  S
C2198      C2199   1.412       .  A
C2199      C2200   1.395       .  A
C2199      N2206   1.424       .  S
C2200      C2201   1.402       .  A
C2200      H2205   1.084       .  S
C2201      C2202   1.412       .  A
C2202      N2203   1.428       .  S
N2203      O2207   1.262       .  A
N2203      O2208   1.262       .  A
N2206      O2210   1.262       .  A
N2206      O2209   1.261       .  A
C2211      C2212   1.408       .  A
C2211      C2216   1.405   1_455  A
C2211      H2218   1.084       .  S
C2212      C2213   1.416   1_455  A
C2213      C2214   1.406       .  A
C2213      N2220   1.428       .  S
C2214      C2215   1.406       .  A
C2214      H2219   1.084       .  S
C2215      C2216   1.415       .  A
C2216      N2217   1.428   1_655  S
N2217      O2221   1.262       .  A
N2217      O2222   1.262       .  A
N2220      O2224   1.262       .  A
N2220      O2223   1.260       .  A
C2225      C2226   1.408       .  A
C2225      C2230   1.402       .  A
C2225      H2232   1.084       .  S
C2226      C2227   1.412       .  A
C2227      C2228   1.406       .  A
C2227      N2234   1.428       .  S
C2228      C2229   1.410       .  A
C2228      H2233   1.084       .  S
C2229      C2230   1.413       .  A
C2230      N2231   1.428       .  S
N2231      O2235   1.262       .  A
N2231      O2236   1.262       .  A
N2234      O2238   1.262       .  A
N2234      O2237   1.262       .  A
C2239      C2240   1.404       .  A
C2239      C2244   1.402       .  A
C2239      H2246   1.084       .  S
C2240      C2241   1.422       .  A
C2241      C2242   1.403       .  A
C2241      N2248   1.429       .  S
C2242      C2243   1.399       .  A
C2242      H2247   1.084       .  S
C2243      C2244   1.414       .  A
C2244      N2245   1.429       .  S
N2245      O2249   1.261       .  A
N2245      O2250   1.262       .  A
N2248      O2252   1.262       .  A
N2248      O2251   1.262       .  A
C2253      C2254   1.412       .  A
C2253      C2258   1.409       .  A
C2253      H2260   1.084       .  S
C2254      C2255   1.408       .  A
C2255      C2256   1.403       .  A
C2255      N2262   1.430       .  S
C2256      C2257   1.416       .  A
C2256      H2261   1.083       .  S
C2257      C2258   1.412       .  A
C2258      N2259   1.428       .  S
N2259      O2263   1.262       .  A
N2259      O2264   1.262       .  A
N2262      O2266   1.262       .  A
N2262      O2265   1.262   1_556  A
C2267      C2268   1.391       .  A
C2267      C2272   1.392       .  A
C2267      H2274   1.085       .  S
C2268      C2269   1.403   1_655  A
C2269      C2270   1.389       .  A
C2269      N2276   1.429       .  S
C2270      C2271   1.402       .  A
C2270      H2275   1.084       .  S
C2271      C2272   1.415   1_455  A
C2272      N2273   1.427       .  S
N2273      O2277   1.261       .  A
N2273      O2278   1.262       .  A
N2276      O2280   1.261       .  A
N2276      O2279   1.262       .  A
C2281      C2282   1.407       .  A
C2281      C2286   1.403   1_655  A
C2281      H2288   1.083       .  S
C2282      C2283   1.416   1_556  A
C2283      C2284   1.404       .  A
C2283      N2290   1.428       .  S
C2284      C2285   1.408   1_655  A
C2284      H2289   1.084       .  S
C2285      C2286   1.419   1_554  A
C2286      N2287   1.429       .  S
N2287      O2291   1.262       .  A
N2287      O2292   1.261       .  A
N2290      O2294   1.262       .  A
N2290      O2293   1.262       .  A
C2295      C2296   1.403   1_455  A
C2295      C2300   1.400       .  A
C2295      H2302   1.084       .  S
C2296      C2297   1.420       .  A
C2297      C2298   1.401       .  A
C2297      N2304   1.429       .  S
C2298      C2299   1.401   1_655  A
C2298      H2303   1.084       .  S
C2299      C2300   1.417       .  A
C2300      N2301   1.429       .  S
N2301      O2305   1.262       .  A
N2301      O2306   1.262       .  A
N2304      O2308   1.262       .  A
N2304      O2307   1.262       .  A
C2309      C2310   1.399       .  A
C2309      C2314   1.403       .  A
C2309      H2316   1.084       .  S
C2310      C2311   1.416       .  A
C2311      C2312   1.399       .  A
C2311      N2318   1.430       .  S
C2312      C2313   1.403       .  A
C2312      H2317   1.084       .  S
C2313      C2314   1.422       .  A
C2314      N2315   1.429       .  S
N2315      O2319   1.262   1_545  A
N2315      O2320   1.262       .  A
N2318      O2322   1.262       .  A
N2318      O2321   1.262       .  A
C2323      C2324   1.412       .  A
C2323      C2328   1.405       .  A
C2323      H2330   1.084   1_455  S
C2324      C2325   1.413       .  A
C2325      C2326   1.402       .  A
C2325      N2332   1.429       .  S
C2326      C2327   1.409       .  A
C2326      H2331   1.084       .  S
C2327      C2328   1.410       .  A
C2328      N2329   1.428       .  S
N2329      O2333   1.262       .  A
N2329      O2334   1.262       .  A
N2332      O2336   1.262       .  A
N2332      O2335   1.262       .  A
C2337      C2338   1.406       .  A
C2337      C2342   1.405       .  A
C2337      H2344   1.084       .  S
C2338      C2339   1.420       .  A
C2339      C2340   1.406       .  A
C2339      N2346   1.429       .  S
C2340      C2341   1.407       .  A
C2340      H2345   1.084       .  S
C2341      C2342   1.420       .  A
C2342      N2343   1.428       .  S
N2343      O2347   1.262       .  A
N2343      O2348   1.261       .  A
N2346      O2350   1.262       .  A
N2346      O2349   1.262       .  A
C2351      C2352   1.404       .  A
C2351      C2356   1.408       .  A
C2351      H2358   1.084       .  S
C2352      C2353   1.424       .  A
C2353      C2354   1.399       .  A
C2353      N2360   1.430   1_455  S
C2354      C2355   1.397       .  A
C2354      H2359   1.084       .  S
C2355      C2356   1.418       .  A
C2356      N2357   1.429       .  S
N2357      O2361   1.262       .  A
N2357      O2362   1.262       .  A
N2360      O2364   1.262   1_655  A
N2360      O2363   1.262       .  A
C2365      C2366   1.411       .  A
C2365      C2370   1.398       .  A
C2365      H2372   1.083       .  S
C2366      C2367   1.414       .  A
C2367      C2368   1.400       .  A
C2367      N2374   1.430       .  S
C2368      C2369   1.407       .  A
C2368      H2373   1.084       .  S
C2369      C2370   1.405       .  A
C2370      N2371   1.429       .  S
N2371      O2375   1.262       .  A
N2371      O2376   1.262       .  A
N2374      O2378   1.262       .  A
N2374      O2377   1.262       .  A
C2379      C2380   1.410       .  A
C2379      C2384   1.397       .  A
C2379      H2386   1.084       .  S
C2380      C2381   1.414       .  A
C2381      C2382   1.406       .  A
C2381      N2388   1.428       .  S
C2382      C2383   1.407       .  A
C2382      H2387   1.084       .  S
C2383      C2384   1.409       .  A
C2384      N2385   1.430       .  S
N2385      O2389   1.262       .  A
N2385      O2390   1.262       .  A
N2388      O2392   1.262       .  A
N2388      O2391   1.262       .  A
C2393      C2394   1.401       .  A
C2393      C2398   1.399       .  A
C2393      H2400   1.084       .  S
C2394      C2395   1.420       .  A
C2395      C2396   1.407       .  A
C2395      N2402   1.429       .  S
C2396      C2397   1.402       .  A
C2396      H2401   1.084       .  S
C2397      C2398   1.419       .  A
C2398      N2399   1.429       .  S
N2399      O2403   1.262       .  A
N2399      O2404   1.262       .  A
N2402      O2406   1.262       .  A
N2402      O2405   1.262       .  A
C2407      C2408   1.401       .  A
C2407      C2412   1.393       .  A
C2407      H2414   1.085       .  S
C2408      C2409   1.408       .  A
C2409      C2410   1.396       .  A
C2409      N2416   1.429       .  S
C2410      C2411   1.403       .  A
C2410      H2415   1.084       .  S
C2411      C2412   1.408       .  A
C2412      N2413   1.429       .  S
N2413      O2417   1.262       .  A
N2413      O2418   1.262       .  A
N2416      O2420   1.262       .  A
N2416      O2419   1.262       .  A
C2421      C2422   1.415       .  A
C2421      C2426   1.405   1_655  A
C2421      H2428   1.083       .  S
C2422      C2423   1.414       .  A
C2423      C2424   1.407   1_655  A
C2423      N2430   1.429       .  S
C2424      C2425   1.413       .  A
C2424      H2429   1.084       .  S
C2425      C2426   1.411       .  A
C2426      N2427   1.429       .  S
N2427      O2431   1.261       .  A
N2427      O2432   1.262       .  A
N2430      O2434   1.262       .  A
N2430      O2433   1.262       .  A
C2435      C2436   1.406       .  A
C2435      C2440   1.402       .  A
C2435      H2442   1.084       .  S
C2436      C2437   1.417       .  A
C2437      C2438   1.402       .  A
C2437      N2444   1.429       .  S
C2438      C2439   1.406       .  A
C2438      H2443   1.084       .  S
C2439      C2440   1.419       .  A
C2440      N2441   1.429       .  S
N2441      O2445   1.262       .  A
N2441      O2446   1.261       .  A
N2444      O2448   1.262       .  A
N2444      O2447   1.262       .  A
