geometry optimzed in LAMMPS
_audit_creation_date              2020-12-01 
_audit_creation_method            'lammps2cif' 
_symmetry_space_group_name_H-M    'P1' 
_symmetry_Int_Tables_number       1 
_symmetry_cell_setting            triclinic 
loop_ 
_symmetry_equiv_pos_as_xyz 
  x,y,z 
_cell_length_a                    45.75655786 
_cell_length_b                    45.75676356428724 
_cell_length_c                    34.94642847787977 
_cell_angle_alpha                 90.00405059513692 
_cell_angle_beta                  89.99662754874164 
_cell_angle_gamma                 89.99499916215424 
loop_ 
_atom_site_label 
_atom_site_type_symbol 
_atom_site_fract_x 
_atom_site_fract_y 
_atom_site_fract_z 
_atom_site_charge 
O1          O  0.07425612  0.04796091  0.63020392    -0.83800
O2          O  0.08681434  0.01987821  0.69696158    -0.80900
C3          C  0.08383675  0.01348236  0.73170176     0.99600
O4          O  0.05878007  0.01176407  0.74667516    -0.80900
O5          O  0.02762439  0.06459936  0.74533588    -0.83500
C6          C  0.01185189  0.08534874  0.73359922     1.04200
O7          O  0.99929940  0.08355908  0.70144895    -0.76300
O8          O  0.04629855  0.08382297  0.65143003    -0.76500
C9          C  0.07031294  0.07494872  0.63771347     1.04100
O10         O  0.03238332  0.00046694  0.61231749    -0.83800
O11         O  0.04673268  0.47280707  0.67983683    -0.80900
C12         C  0.02502039  0.46489379  0.70002154     0.99700
O13         O  0.00872401  0.48326858  0.71615618    -0.80900
O14         O  0.47641234  0.03287350  0.72030032    -0.83500
C15         C  0.46155919  0.03061371  0.68990019     1.04100
O16         O  0.47274331  0.03705829  0.65781882    -0.76300
O17         O  0.01572585  0.04426931  0.60124224    -0.76500
C18         C  0.02033263  0.01842897  0.59010429     1.04100
Cr19       Cr  0.05754562  0.01195880  0.65657001     1.93700
Cr20       Cr  0.01897322  0.02400251  0.72808145     1.93200
Cr21       Cr  0.01007051  0.05984636  0.65486951     1.39100
O22         O  0.02913304  0.03176645  0.67988780    -1.21600
O23         O  0.16692493  0.20269324  0.65132451    -0.83800
O24         O  0.16802594  0.24877730  0.70247876    -0.80900
C25         C  0.16639288  0.23546094  0.73407616     0.99600
O26         O  0.18735750  0.21969885  0.74521839    -0.80900
O27         O  0.24020667  0.18899286  0.74486795    -0.83500
C28         C  0.23814456  0.16409885  0.72966937     1.04200
O29         O  0.23214648  0.16138583  0.69475327    -0.76300
O30         O  0.20244529  0.17455352  0.62936040    -0.76500
C31         C  0.17553508  0.17870132  0.63725417     1.04100
O32         O  0.20561290  0.23395115  0.60098147    -0.83800
O33         O  0.21400318  0.27594671  0.65862409    -0.80900
C34         C  0.22080019  0.28657163  0.69089900     0.99700
O35         O  0.21860846  0.27131676  0.72091063    -0.80900
O36         O  0.26831692  0.23943010  0.71466270    -0.83500
C37         C  0.28658328  0.22403454  0.69685834     1.04100
O38         O  0.27860657  0.20244015  0.67643693    -0.76300
O39         O  0.24942214  0.21674721  0.61028719    -0.76500
C40         C  0.23113314  0.22910660  0.58888336     1.04100
Cr41       Cr  0.19103964  0.23876732  0.65516187     1.93700
Cr42       Cr  0.22775075  0.22880512  0.72731807     1.93200
Cr43       Cr  0.23897962  0.19123741  0.65458501     1.39100
O44         O  0.21942259  0.21928481  0.67903580    -1.21600
O45         O  0.29712866  0.33303964  0.34859607    -0.83800
O46         O  0.25101974  0.33333866  0.29734902    -0.80900
C47         C  0.26414123  0.33555836  0.26570775     0.99600
O48         O  0.28015889  0.31503784  0.25388538    -0.80900
O49         O  0.31081698  0.26210828  0.25173954    -0.83500
C50         C  0.33568977  0.26321436  0.26723070     1.04200
O51         O  0.33829481  0.26847646  0.30236751    -0.76300
O52         O  0.32520405  0.29687849  0.36883563    -0.76500
C53         C  0.32114574  0.32400348  0.36215999     1.04100
O54         O  0.26551742  0.29329123  0.39701480    -0.83800
O55         O  0.22351269  0.28660369  0.33885154    -0.80900
C56         C  0.21291460  0.28081926  0.30619193     0.99700
O57         O  0.22838586  0.28340560  0.27640692    -0.80900
O58         O  0.26015001  0.23345316  0.28039058    -0.83500
C59         C  0.27531542  0.21470435  0.29765702     1.04100
O60         O  0.29679040  0.22206028  0.31867030    -0.76300
O61         O  0.28259117  0.24967226  0.38602465    -0.76500
C62         C  0.27013565  0.26747650  0.40805066     1.04100
Cr63       Cr  0.26090928  0.30918405  0.34354934     1.93700
Cr64       Cr  0.27093935  0.27429117  0.26977509     1.93200
Cr65       Cr  0.30825042  0.26103067  0.34216259     1.39100
O66         O  0.28033512  0.28132145  0.31847565    -1.21600
O67         O  0.45233707  0.42508906  0.36961003    -0.83800
O68         O  0.48123808  0.41198204  0.30358508    -0.80900
C69         C  0.48699348  0.41459247  0.26860289     0.99600
O70         O  0.48814704  0.43943032  0.25296410    -0.80900
O71         O  0.43532843  0.47081351  0.25351661    -0.83500
C72         C  0.41460751  0.48680016  0.26496523     1.04200
O73         O  0.41642421  0.49943712  0.29706426    -0.76300
O74         O  0.41634031  0.45279140  0.34805307    -0.76500
C75         C  0.42529784  0.42891247  0.36215488     1.04100
O76         O  0.49945953  0.46759544  0.38725882    -0.83800
O77         O  0.02770150  0.45289778  0.32037421    -0.80900
C78         C  0.03545367  0.47420139  0.29933771     0.99700
O79         O  0.01694864  0.48977226  0.28224558    -0.80900
O80         O  0.46734246  0.02206818  0.27773617    -0.83500
C81         C  0.46971184  0.03719785  0.30787650     1.04100
O82         O  0.46299758  0.02643303  0.34012459    -0.76300
O83         O  0.45556537  0.48414121  0.39772750    -0.76500
C84         C  0.48134010  0.47967138  0.40918719     1.04100
Cr85       Cr  0.48843679  0.44189868  0.34336642     1.93700
Cr86       Cr  0.47607025  0.47943326  0.27076874     1.93200
Cr87       Cr  0.44020331  0.48910506  0.34384770     1.39100
O88         O  0.46838732  0.46982194  0.31924544    -1.21600
O89         O  0.41723952  0.29625271  0.84850062    -0.83800
O90         O  0.41779294  0.24939737  0.79800609    -0.80900
C91         C  0.41588553  0.26268765  0.76650833     0.99600
O92         O  0.43655693  0.27884788  0.75550554    -0.80900
O93         O  0.48895021  0.31006357  0.75516466    -0.83500
C94         C  0.48923785  0.33460419  0.77154560     1.04200
O95         O  0.48513323  0.33682772  0.80696732    -0.76300
O96         O  0.45314742  0.32402191  0.87045334    -0.76500
C97         C  0.42622458  0.32032415  0.86205846     1.04100
O98         O  0.45463324  0.26433900  0.89962366    -0.83800
O99         O  0.46339611  0.22222217  0.84137661    -0.80900
C100        C  0.47024660  0.21173247  0.80895020     0.99700
O101        O  0.46873414  0.22728991  0.77906137    -0.80900
O102        O  0.01828637  0.25964026  0.78350386    -0.83500
C103        C  0.03674637  0.27327740  0.80334743     1.04100
O104        O  0.02922414  0.29368863  0.82597197    -0.76300
O105        O  0.49884511  0.28034651  0.89110707    -0.76500
C106        C  0.48005645  0.26861236  0.91229587     1.04100
Cr107      Cr  0.44082649  0.25971485  0.84503928     1.93700
Cr108      Cr  0.47728299  0.26999014  0.77258557     1.93200
Cr109      Cr  0.48976106  0.30622597  0.84661491     1.39100
O110        O  0.46957083  0.27895999  0.82133421    -1.21600
O111        O  0.33386860  0.45341374  0.84283245    -0.83800
O112        O  0.33229638  0.49952339  0.79143293    -0.80900
C113        C  0.33431439  0.48675392  0.75946907     0.99600
O114        O  0.31386225  0.47052156  0.74788891    -0.80900
O115        O  0.26199264  0.43821856  0.74727433    -0.83500
C116        C  0.26453799  0.41332471  0.76233406     1.04200
O117        O  0.27040765  0.41063545  0.79730121    -0.76300
O118        O  0.29879199  0.42428202  0.86361376    -0.76500
C119        C  0.32569906  0.42915291  0.85660015     1.04100
O120        O  0.29348785  0.48397819  0.89211824    -0.83800
O121        O  0.28535001  0.02578806  0.83426820    -0.80900
C122        C  0.27891991  0.03641769  0.80187474     0.99700
O123        O  0.28098149  0.02106746  0.77193583    -0.80900
O124        O  0.23212885  0.48765334  0.77740197    -0.83500
C125        C  0.21419805  0.47171442  0.79497603     1.04100
O126        O  0.22260559  0.45019088  0.81516772    -0.76300
O127        O  0.25047390  0.46505233  0.88206176    -0.76500
C128        C  0.26801507  0.47821505  0.90377120     1.04100
Cr129      Cr  0.30887494  0.48897280  0.83826656     1.93700
Cr130      Cr  0.27310702  0.47829888  0.76529533     1.93200
Cr131      Cr  0.26223767  0.44009214  0.83763645     1.39100
O132        O  0.28125005  0.46884271  0.81372363    -1.21600
O133        O  0.04674232  0.16511690  0.15295175    -0.83800
O134        O  0.00148080  0.16559519  0.20574499    -0.80900
C135        C  0.01471092  0.16376044  0.23739781     0.99600
O136        O  0.03070587  0.18450740  0.24869375    -0.80900
O137        O  0.06175556  0.23736180  0.24868105    -0.83500
C138        C  0.08653926  0.23574071  0.23307269     1.04200
O139        O  0.08897404  0.22964242  0.19810779    -0.76300
O140        O  0.07492958  0.20088903  0.13188581    -0.76500
C141        C  0.07064191  0.17384129  0.13864808     1.04100
O142        O  0.01450354  0.20496514  0.10501553    -0.83800
O143        O  0.47352986  0.21225325  0.16397956    -0.80900
C144        C  0.46327261  0.21860757  0.19661916     0.99700
O145        O  0.47901281  0.21628092  0.22617561    -0.80900
O146        O  0.01125308  0.26590497  0.21988128    -0.83500
C147        C  0.02677090  0.28421079  0.20231422     1.04100
O148        O  0.04809882  0.27629628  0.18145638    -0.76300
O149        O  0.03274256  0.24831254  0.11478500    -0.76500
C150        C  0.01944620  0.23060431  0.09344525     1.04100
Cr151      Cr  0.01074536  0.18936530  0.15880611     1.93700
Cr152      Cr  0.02172039  0.22513886  0.23164814     1.93200
Cr153      Cr  0.05869264  0.23702090  0.15846483     1.39100
O154        O  0.03071912  0.21729423  0.18298817    -1.21600
O155        O  0.20416780  0.08247798  0.14538749    -0.83800
O156        O  0.25003310  0.08233138  0.19690633    -0.80900
C157        C  0.23680758  0.08476064  0.22847741     0.99600
O158        O  0.22089747  0.06418523  0.24052673    -0.80900
O159        O  0.18992029  0.01113589  0.24248945    -0.83500
C160        C  0.16498615  0.01246102  0.22723137     1.04200
O161        O  0.16226487  0.01822558  0.19226741    -0.76300
O162        O  0.17510917  0.04681818  0.12605663    -0.76500
C163        C  0.17970511  0.07382127  0.13271770     1.04100
O164        O  0.23570098  0.04223493  0.09699925    -0.83800
O165        O  0.27759829  0.03519751  0.15568182    -0.80900
C166        C  0.28812291  0.02940826  0.18843977     0.99700
O167        O  0.27247222  0.03214611  0.21803707    -0.80900
O168        O  0.24014700  0.48253827  0.21302966    -0.83500
C169        C  0.22475309  0.46407216  0.19556872     1.04100
O170        O  0.20321567  0.47166416  0.17485606    -0.76300
O171        O  0.21674865  0.99927804  0.10730498    -0.76500
C172        C  0.22979995  0.01678693  0.08544864     1.04100
Cr173      Cr  0.24021517  0.05814953  0.15060822     1.93700
Cr174      Cr  0.22977526  0.02332445  0.22428844     1.93200
Cr175      Cr  0.19192344  0.01075614  0.15199447     1.39100
O176        O  0.22035556  0.03055409  0.17558360    -1.21600
C177        C  0.15621607  0.09513893  0.12699640    -0.17000
C178        C  0.13648668  0.11317163  0.12582219     0.07100
C179        C  0.11332742  0.13448617  0.12726999     0.08900
C180        C  0.09377452  0.15253591  0.13076005    -0.17800
C181        C  0.23767555  0.00791568  0.04649919    -0.17000
C182        C  0.24425101  0.00092974  0.01381911     0.07100
C183        C  0.25216626  0.49299412  0.97528437     0.08900
C184        C  0.25917190  0.48629985  0.94265497    -0.17800
C185        C  0.01024841  0.23941826  0.05504323    -0.17000
C186        C  0.00274333  0.24625581  0.02269540     0.07100
C187        C  0.49429295  0.25396114  0.98432982     0.08900
C188        C  0.48756112  0.26049259  0.95158362    -0.17800
C189        C  0.34747753  0.40632067  0.86365416    -0.17000
C190        C  0.36581580  0.38700264  0.86669793     0.07100
C191        C  0.38731564  0.36401988  0.86802833     0.08900
C192        C  0.40531621  0.34425908  0.86711413    -0.17800
C193        C  0.00935643  0.13844674  0.26130681    -0.17000
C194        C  0.00148712  0.11667016  0.27828526     0.07100
C195        C  0.49017135  0.09040176  0.29447520     0.08900
C196        C  0.48021643  0.06690988  0.30402454    -0.17800
C197        C  0.49412978  0.38870405  0.24679618    -0.17000
C198        C  0.50218368  0.36633079  0.23150039     0.07100
C199        C  0.01229651  0.33913664  0.21688211     0.08900
C200        C  0.02008771  0.31479850  0.20774999    -0.17800
C201        C  0.13916401  0.00565367  0.24957643    -0.17000
C202        C  0.11703675  0.99798476  0.26594421     0.07100
C203        C  0.09016447  0.48829793  0.28227114     0.08900
C204        C  0.06603680  0.48072776  0.29282263    -0.17800
C205        C  0.31812975  0.01972079  0.19373828    -0.17000
C206        C  0.34165442  0.01067573  0.20497625     0.07100
C207        C  0.36780089  0.50025872  0.22291502     0.08900
C208        C  0.38937400  0.49265975  0.24076942    -0.17800
C209        C  0.34456169  0.34514254  0.36919958    -0.17000
C210        C  0.36375796  0.36365801  0.37156693     0.07100
C211        C  0.38589206  0.38603959  0.37149219     0.08900
C212        C  0.40422281  0.40540878  0.36905652    -0.17800
C213        C  0.23189740  0.43365500  0.20100426    -0.17000
C214        C  0.24026035  0.40963376  0.21053028     0.07100
C215        C  0.25083210  0.38296875  0.22603356     0.08900
C216        C  0.25862498  0.36099762  0.24241556    -0.17800
C217        C  0.24195248  0.11067708  0.25127242    -0.17000
C218        C  0.24938455  0.13310546  0.26705444     0.07100
C219        C  0.25964768  0.16016734  0.28211688     0.08900
C220        C  0.26796026  0.18427207  0.29168790    -0.17800
C221        C  0.43345588  0.22853359  0.20159628    -0.17000
C222        C  0.40988879  0.23789467  0.21184755     0.07100
C223        C  0.38349403  0.24868130  0.22832470     0.08900
C224        C  0.36155033  0.25660875  0.24489212    -0.17800
C225        C  0.18303117  0.27120856  0.30129709    -0.17000
C226        C  0.15966146  0.26193300  0.29025387     0.07100
C227        C  0.13384666  0.25098640  0.27251607     0.08900
C228        C  0.11237163  0.24273999  0.25521305    -0.17800
C229        C  0.23924151  0.23726630  0.54990190    -0.17000
C230        C  0.24612653  0.24388466  0.51729274     0.07100
C231        C  0.25439314  0.25168362  0.47898496     0.08900
C232        C  0.26153402  0.25857388  0.44656769    -0.17800
C233        C  0.06718954  0.26538420  0.79857594    -0.17000
C234        C  0.09141102  0.25707090  0.78946694     0.07100
C235        C  0.11856925  0.24717758  0.77423910     0.08900
C236        C  0.14089552  0.24018914  0.75784708    -0.17800
C237        C  0.39048133  0.25743558  0.74273730    -0.17000
C238        C  0.36831717  0.24990293  0.72636939     0.07100
C239        C  0.34136223  0.23954689  0.71102818     0.08900
C240        C  0.31718601  0.23121992  0.70173537    -0.17800
C241        C  0.26952884  0.06636394  0.79747383    -0.17000
C242        C  0.26097213  0.09008946  0.78689113     0.07100
C243        C  0.25130527  0.11647859  0.76950869     0.08900
C244        C  0.24420899  0.13832426  0.75223353    -0.17800
C245        C  0.25882528  0.38751989  0.73963989    -0.17000
C246        C  0.25134794  0.36577450  0.72240665     0.07100
C247        C  0.24064842  0.33967176  0.70529531     0.08900
C248        C  0.23106197  0.31625799  0.69502242    -0.17800
C249        C  0.48991750  0.48791501  0.44801770    -0.17000
C250        C  0.49701125  0.49467604  0.48053165     0.07100
C251        C  0.00528394  0.00264672  0.51882435     0.08900
C252        C  0.01218392  0.00964308  0.55132382    -0.17800
C253        C  0.15417605  0.15544750  0.63091377    -0.17000
C254        C  0.13557757  0.13635789  0.62888870     0.07100
C255        C  0.11317093  0.11432795  0.62903679     0.08900
C256        C  0.09379750  0.09603864  0.63126873    -0.17800
C257        C  0.10953062  0.00598966  0.75374251    -0.17000
C258        C  0.13187306  0.99740717  0.76866014     0.07100
C259        C  0.15907688  0.48660342  0.78233456     0.08900
C260        C  0.18347778  0.47835451  0.79053297    -0.17800
C261        C  0.35955047  0.49266015  0.73565418    -0.17000
C262        C  0.38135105  0.50044667  0.71867114     0.07100
C263        C  0.40786367  0.01129068  0.70258003     0.08900
C264        C  0.43163229  0.02068399  0.69326843    -0.17800
C265        C  0.00616381  0.11055509  0.75760642    -0.17000
C266        C  0.99879979  0.13207237  0.77553046     0.07100
C267        C  0.48857756  0.15817244  0.79338979     0.08900
C268        C  0.47966657  0.18172909  0.80433865    -0.17800
C269        C  0.01896006  0.43431623  0.70676635    -0.17000
C270        C  0.01189587  0.41009190  0.71736086     0.07100
C271        C  0.50282197  0.38302829  0.73356683     0.08900
C272        C  0.49566721  0.36067925  0.74969406    -0.17800
O273        O  0.07423518  0.54800161  0.63017408    -0.83800
O274        O  0.08679637  0.51990948  0.69692724    -0.80900
C275        C  0.08382025  0.51352326  0.73167062     0.99600
O276        O  0.05876400  0.51180824  0.74664646    -0.80900
O277        O  0.02759646  0.56463263  0.74530448    -0.83500
C278        C  0.01181890  0.58537880  0.73357150     1.04200
O279        O  0.99926973  0.58359082  0.70141908    -0.76300
O280        O  0.04627453  0.58386275  0.65139788    -0.76500
C281        C  0.07028945  0.57499120  0.63767716     1.04100
O282        O  0.03235921  0.50050395  0.61229059    -0.83800
O283        O  0.04675278  0.97277768  0.67986962    -0.80900
C284        C  0.02503399  0.96486688  0.70004166     0.99700
O285        O  0.00873659  0.98324116  0.71617563    -0.80900
O286        O  0.47639472  0.53287339  0.72031139    -0.83500
C287        C  0.46154099  0.53061820  0.68991023     1.04100
O288        O  0.47272111  0.53708215  0.65783207    -0.76300
O289        O  0.01570532  0.54430673  0.60121293    -0.76500
C290        C  0.02030834  0.51846555  0.59007813     1.04100
Cr291      Cr  0.05752455  0.51199348  0.65653853     1.93700
Cr292      Cr  0.01895351  0.52403475  0.72805208     1.93200
Cr293      Cr  0.01004751  0.55988092  0.65483995     1.39100
O294        O  0.02911217  0.53180039  0.67985791    -1.21600
O295        O  0.16693949  0.70272419  0.65127568    -0.83800
O296        O  0.16804984  0.74879296  0.70245029    -0.80900
C297        C  0.16641508  0.73546929  0.73404193     0.99600
O298        O  0.18738057  0.71970807  0.74518471    -0.80900
O299        O  0.24023987  0.68900781  0.74483174    -0.83500
C300        C  0.23817742  0.66411354  0.72963288     1.04200
O301        O  0.23216207  0.66140260  0.69472201    -0.76300
O302        O  0.20245614  0.67457128  0.62932992    -0.76500
C303        C  0.17554367  0.67872901  0.63720790     1.04100
O304        O  0.20564015  0.73398631  0.60095290    -0.83800
O305        O  0.21403044  0.77597048  0.65860707    -0.80900
C306        C  0.22082307  0.78659291  0.69088482     0.99700
O307        O  0.21862499  0.77133422  0.72089244    -0.80900
O308        O  0.26833505  0.73945274  0.71462944    -0.83500
C309        C  0.28660284  0.72405385  0.69683276     1.04100
O310        O  0.27862582  0.70245835  0.67641075    -0.76300
O311        O  0.24944188  0.71676255  0.61025801    -0.76500
C312        C  0.23115932  0.72913380  0.58885714     1.04100
Cr313      Cr  0.19106293  0.73879321  0.65513137     1.93700
Cr314      Cr  0.22777243  0.72882100  0.72728788     1.93200
Cr315      Cr  0.23899582  0.69125453  0.65455470     1.39100
O316        O  0.21944189  0.71930390  0.67900480    -1.21600
O317        O  0.29715421  0.83302965  0.34853577    -0.83800
O318        O  0.25102798  0.83332263  0.29731684    -0.80900
C319        C  0.26413700  0.83553533  0.26566599     0.99600
O320        O  0.28014902  0.81501145  0.25383961    -0.80900
O321        O  0.31079981  0.76207192  0.25168802    -0.83500
C322        C  0.33567875  0.76316677  0.26716506     1.04200
O323        O  0.33829767  0.76843858  0.30229769    -0.76300
O324        O  0.32523742  0.79686847  0.36876221    -0.76500
C325        C  0.32117177  0.82399410  0.36209707     1.04100
O326        O  0.26556431  0.79330005  0.39698716    -0.83800
O327        O  0.22353724  0.78659983  0.33886020    -0.80900
C328        C  0.21292361  0.78081325  0.30621098     0.99700
O329        O  0.22838143  0.78339194  0.27641241    -0.80900
O330        O  0.26013751  0.73343689  0.28038765    -0.83500
C331        C  0.27530288  0.71468908  0.29765533     1.04100
O332        O  0.29678673  0.72204323  0.31865381    -0.76300
O333        O  0.28262416  0.74967534  0.38600364    -0.76500
C334        C  0.27018077  0.76748728  0.40803012     1.04100
Cr335      Cr  0.26093507  0.80917764  0.34351928     1.93700
Cr336      Cr  0.27093077  0.77426910  0.26974976     1.93200
Cr337      Cr  0.30826718  0.76101591  0.34211789     1.39100
O338        O  0.28034786  0.78130768  0.31844131    -1.21600
O339        O  0.45230511  0.92510793  0.36962652    -0.83800
O340        O  0.48115060  0.91198215  0.30357134    -0.80900
C341        C  0.48696278  0.91459071  0.26860588     0.99600
O342        O  0.48817351  0.93943102  0.25298122    -0.80900
O343        O  0.43534976  0.97081620  0.25348697    -0.83500
C344        C  0.41462118  0.98679646  0.26493011     1.04200
O345        O  0.41642408  0.99943303  0.29703275    -0.76300
O346        O  0.41632262  0.95281337  0.34804724    -0.76500
C347        C  0.42527025  0.92893641  0.36216217     1.04100
O348        O  0.49945416  0.96756906  0.38724402    -0.83800
O349        O  0.02768556  0.95287805  0.32034624    -0.80900
C350        C  0.03544076  0.97418895  0.29932290     0.99700
O351        O  0.01693482  0.98977575  0.28225576    -0.80900
O352        O  0.46733853  0.52206486  0.27775754    -0.83500
C353        C  0.46972446  0.53718652  0.30790333     1.04100
O354        O  0.46300635  0.52642025  0.34015028    -0.76300
O355        O  0.45557326  0.98416089  0.39771119    -0.76500
C356        C  0.48134401  0.97965959  0.40917408     1.04100
Cr357      Cr  0.48840228  0.94188344  0.34335426     1.93700
Cr358      Cr  0.47608244  0.97943622  0.27076985     1.93200
Cr359      Cr  0.44019655  0.98911828  0.34383159     1.39100
O360        O  0.46837662  0.96982573  0.31923937    -1.21600
O361        O  0.41728558  0.79628640  0.84856854    -0.83800
O362        O  0.41779900  0.74943017  0.79808067    -0.80900
C363        C  0.41588985  0.76270855  0.76657282     0.99600
O364        O  0.43656477  0.77885781  0.75555214    -0.80900
O365        O  0.48897463  0.81005375  0.75517776    -0.83500
C366        C  0.48925147  0.83459994  0.77154506     1.04200
O367        O  0.48513757  0.83683434  0.80696343    -0.76300
O368        O  0.45320742  0.82404606  0.87049622    -0.76500
C369        C  0.42628223  0.82035805  0.86211120     1.04100
O370        O  0.45470695  0.76436519  0.89967013    -0.83800
O371        O  0.46341454  0.72223884  0.84142601    -0.80900
C372        C  0.47024626  0.71174146  0.80899763     0.99700
O373        O  0.46872527  0.72729442  0.77910619    -0.80900
O374        O  0.01828028  0.75962559  0.78347840    -0.83500
C375        C  0.03675467  0.77327252  0.80328804     1.04100
O376        O  0.02924902  0.79369387  0.82590535    -0.76300
O377        O  0.49891571  0.78037167  0.89110895    -0.76500
C378        C  0.48013917  0.76863657  0.91231744     1.04100
Cr379      Cr  0.44086043  0.75974060  0.84509809     1.93700
Cr380      Cr  0.47729224  0.76998886  0.77261648     1.93200
Cr381      Cr  0.48980140  0.80624513  0.84661781     1.39100
O382        O  0.46959822  0.77897326  0.82136529    -1.21600
O383        O  0.33390616  0.95345315  0.84283438    -0.83800
O384        O  0.33229851  0.99957507  0.79145526    -0.80900
C385        C  0.33432309  0.98681023  0.75948864     0.99600
O386        O  0.31387817  0.97057269  0.74790103    -0.80900
O387        O  0.26202322  0.93824658  0.74726395    -0.83500
C388        C  0.26458345  0.91334774  0.76230622     1.04200
O389        O  0.27046719  0.91064894  0.79726838    -0.76300
O390        O  0.29884837  0.92428789  0.86358961    -0.76500
C391        C  0.32575288  0.92918223  0.85658819     1.04100
O392        O  0.29350494  0.98397472  0.89213671    -0.83800
O393        O  0.28536582  0.52578191  0.83422286    -0.80900
C394        C  0.27894336  0.53640474  0.80182194     0.99700
O395        O  0.28098817  0.52104046  0.77189287    -0.80900
O396        O  0.23214039  0.98765321  0.77742951    -0.83500
C397        C  0.21422084  0.97169423  0.79499195     1.04100
O398        O  0.22264273  0.95016777  0.81516810    -0.76300
O399        O  0.25050524  0.96501928  0.88207359    -0.76500
C400        C  0.26803641  0.97819161  0.90378784     1.04100
Cr401      Cr  0.30888659  0.98899599  0.83828660     1.93700
Cr402      Cr  0.27312140  0.97832486  0.76531168     1.93200
Cr403      Cr  0.26228213  0.94008442  0.83762740     1.39100
O404        O  0.28127391  0.96885598  0.81373293    -1.21600
O405        O  0.04677855  0.66512642  0.15300241    -0.83800
O406        O  0.00151581  0.66559725  0.20578928    -0.80900
C407        C  0.01473477  0.66377275  0.23745303     0.99600
O408        O  0.03071502  0.68452976  0.24875521    -0.80900
O409        O  0.06175239  0.73739239  0.24873205    -0.83500
C410        C  0.08654163  0.73575232  0.23314209     1.04200
O411        O  0.08898758  0.72963586  0.19818415    -0.76300
O412        O  0.07496363  0.70090055  0.13194003    -0.76500
C413        C  0.07067484  0.67385247  0.13869379     1.04100
O414        O  0.01454641  0.70497631  0.10505338    -0.83800
O415        O  0.47357301  0.71223819  0.16400407    -0.80900
C416        C  0.46330224  0.71857965  0.19664017     0.99700
O417        O  0.47903696  0.71626184  0.22620384    -0.80900
O418        O  0.01125189  0.76591330  0.21989000    -0.83500
C419        C  0.02678598  0.78421797  0.20234627     1.04100
O420        O  0.04812999  0.77630167  0.18151816    -0.76300
O421        O  0.03278878  0.74832322  0.11482896    -0.76500
C422        C  0.01949981  0.73061437  0.09348045     1.04100
Cr423      Cr  0.01077959  0.68936901  0.15884551     1.93700
Cr424      Cr  0.02172507  0.72515469  0.23168541     1.93200
Cr425      Cr  0.05872363  0.73702704  0.15852368     1.39100
O426        O  0.03074175  0.71730185  0.18303269    -1.21600
O427        O  0.20416262  0.58247790  0.14536871    -0.83800
O428        O  0.25001338  0.58233962  0.19690229    -0.80900
C429        C  0.23677741  0.58476847  0.22846614     0.99600
O430        O  0.22086533  0.56419302  0.24050793    -0.80900
O431        O  0.18990495  0.51114287  0.24246973    -0.83500
C432        C  0.16497305  0.51247387  0.22720894     1.04200
O433        O  0.16225534  0.51823229  0.19224289    -0.76300
O434        O  0.17510968  0.54681540  0.12602988    -0.76500
C435        C  0.17970365  0.57381848  0.13269189     1.04100
O436        O  0.23570273  0.54223772  0.09699469    -0.83800
O437        O  0.27759302  0.53520586  0.15569098    -0.80900
C438        C  0.28811114  0.52942282  0.18845466     0.99700
O439        O  0.27245398  0.53216540  0.21804502    -0.80900
O440        O  0.24015395  0.98252468  0.21303019    -0.83500
C441        C  0.22475591  0.96406252  0.19556781     1.04100
O442        O  0.20321830  0.97165987  0.17485985    -0.76300
O443        O  0.21675213  0.49927901  0.10729697    -0.76500
C444        C  0.22980108  0.51679066  0.08544203     1.04100
Cr445      Cr  0.24020901  0.55815467  0.15060205     1.93700
Cr446      Cr  0.22975814  0.52333528  0.22428032     1.93200
Cr447      Cr  0.19192012  0.51075749  0.15197886     1.39100
O448        O  0.22034700  0.53055922  0.17557236    -1.21600
C449        C  0.15621636  0.59513409  0.12696745    -0.17000
C450        C  0.13649300  0.61317126  0.12580298     0.07100
C451        C  0.11334439  0.63449298  0.12727241     0.08900
C452        C  0.09380036  0.65254742  0.13078433    -0.17800
C453        C  0.23767221  0.50792488  0.04648993    -0.17000
C454        C  0.24424337  0.50094764  0.01380659     0.07100
C455        C  0.25217774  0.99296689  0.97530072     0.08900
C456        C  0.25918686  0.98626957  0.94267236    -0.17800
C457        C  0.01032412  0.73942719  0.05506379    -0.17000
C458        C  0.00283786  0.74626951  0.02270786     0.07100
C459        C  0.49440602  0.75398184  0.98434691     0.08900
C460        C  0.48766672  0.76051488  0.95160142    -0.17800
C461        C  0.34754702  0.90636533  0.86364441    -0.17000
C462        C  0.36589100  0.88705378  0.86670085     0.07100
C463        C  0.38739033  0.86407078  0.86805259     0.08900
C464        C  0.40538506  0.84430407  0.86715574    -0.17800
C465        C  0.00938624  0.63845706  0.26136586    -0.17000
C466        C  0.00152533  0.61667700  0.27834747     0.07100
C467        C  0.49021890  0.59037694  0.29450245     0.08900
C468        C  0.48025127  0.56689136  0.30405698    -0.17800
C469        C  0.49410860  0.88869939  0.24681336    -0.17000
C470        C  0.50217393  0.86632282  0.23153855     0.07100
C471        C  0.01230458  0.83913974  0.21691130     0.08900
C472        C  0.02010337  0.81480485  0.20777832    -0.17800
C473        C  0.13915098  0.50568056  0.24955668    -0.17000
C474        C  0.11703034  0.49801805  0.26594209     0.07100
C475        C  0.09016014  0.98826648  0.28225203     0.08900
C476        C  0.06602686  0.98070446  0.29279592    -0.17800
C477        C  0.31811706  0.51973654  0.19376882    -0.17000
C478        C  0.34163849  0.51069183  0.20501866     0.07100
C479        C  0.36781977  0.00024429  0.22286578     0.08900
C480        C  0.38939265  0.99264927  0.24072361    -0.17800
C481        C  0.34457673  0.84513719  0.36915389    -0.17000
C482        C  0.36375742  0.86366520  0.37154136     0.07100
C483        C  0.38587212  0.88606150  0.37148748     0.08900
C484        C  0.40419327  0.90543846  0.36906171    -0.17800
C485        C  0.23189526  0.93364303  0.20099400    -0.17000
C486        C  0.24025200  0.90961665  0.21050717     0.07100
C487        C  0.25081946  0.88294509  0.22599607     0.08900
C488        C  0.25861405  0.86097161  0.24237122    -0.17800
C489        C  0.24191560  0.61068117  0.25126643    -0.17000
C490        C  0.24934707  0.63310396  0.26705952     0.07100
C491        C  0.25961619  0.66015850  0.28213158     0.08900
C492        C  0.26793741  0.68425948  0.29170136    -0.17800
C493        C  0.43347407  0.72848042  0.20160190    -0.17000
C494        C  0.40989260  0.73782428  0.21182524     0.07100
C495        C  0.38348141  0.74860441  0.22826875     0.08900
C496        C  0.36153222  0.75653948  0.24481902    -0.17800
C497        C  0.18303648  0.77120998  0.30134546    -0.17000
C498        C  0.15966075  0.76193921  0.29032199     0.07100
C499        C  0.13384179  0.75099632  0.27259579     0.08900
C500        C  0.11236757  0.74275157  0.25529245    -0.17800
C501        C  0.23927504  0.73729821  0.54988143    -0.17000
C502        C  0.24616867  0.74391727  0.51727608     0.07100
C503        C  0.25444334  0.75171216  0.47897127     0.08900
C504        C  0.26158604  0.75859511  0.44655247    -0.17800
C505        C  0.06719436  0.76537830  0.79849272    -0.17000
C506        C  0.09141690  0.75706711  0.78938779     0.07100
C507        C  0.11858071  0.74717566  0.77418024     0.08900
C508        C  0.14091367  0.74018942  0.75780416    -0.17800
C509        C  0.39048236  0.75745167  0.74280566    -0.17000
C510        C  0.36832345  0.74991847  0.72642286     0.07100
C511        C  0.34137719  0.73956256  0.71104964     0.08900
C512        C  0.31720631  0.73123519  0.70172824    -0.17800
C513        C  0.26957756  0.56635904  0.79740157    -0.17000
C514        C  0.26103399  0.59008960  0.78681637     0.07100
C515        C  0.25136821  0.61648589  0.76944615     0.08900
C516        C  0.24426165  0.63833636  0.75218657    -0.17800
C517        C  0.25886787  0.88754740  0.73960261    -0.17000
C518        C  0.25138417  0.86580107  0.72237380     0.07100
C519        C  0.24067778  0.83969479  0.70527670     0.08900
C520        C  0.23108773  0.81627910  0.69501291    -0.17800
C521        C  0.48992732  0.98788010  0.44801377    -0.17000
C522        C  0.49702789  0.99461889  0.48053473     0.07100
C523        C  0.00525135  0.50267042  0.51881041     0.08900
C524        C  0.01215448  0.50967687  0.55130349    -0.17800
C525        C  0.15417291  0.65548311  0.63085441    -0.17000
C526        C  0.13556322  0.63640180  0.62882483     0.07100
C527        C  0.11314719  0.61437647  0.62897696     0.08900
C528        C  0.09377222  0.59608640  0.63121869    -0.17800
C529        C  0.10951594  0.50603826  0.75371371    -0.17000
C530        C  0.13185901  0.49745912  0.76863428     0.07100
C531        C  0.15909281  0.98655427  0.78235647     0.08900
C532        C  0.18349682  0.97831467  0.79055237    -0.17800
C533        C  0.35955919  0.99272242  0.73567891    -0.17000
C534        C  0.38135911  0.00049985  0.71869034     0.07100
C535        C  0.40785374  0.51125719  0.70257408     0.08900
C536        C  0.43161859  0.52066928  0.69327248    -0.17800
C537        C  0.00612263  0.61057814  0.75758770    -0.17000
C538        C  0.99875968  0.63208594  0.77553080     0.07100
C539        C  0.48856061  0.65817593  0.79343729     0.08900
C540        C  0.47965669  0.68173468  0.80438700    -0.17800
C541        C  0.01896794  0.93429185  0.70676839    -0.17000
C542        C  0.01189910  0.91006605  0.71734234     0.07100
C543        C  0.50284170  0.88301677  0.73356299     0.08900
C544        C  0.49568268  0.86066820  0.74968553    -0.17800
O545        O  0.57425529  0.04796463  0.63018687    -0.83800
O546        O  0.58681893  0.01990026  0.69695514    -0.80900
C547        C  0.58384381  0.01350852  0.73169683     0.99600
O548        O  0.55878762  0.01179029  0.74667168    -0.80900
O549        O  0.52762354  0.06461981  0.74530757    -0.83500
C550        C  0.51184538  0.08536279  0.73356539     1.04200
O551        O  0.49929132  0.08356394  0.70141690    -0.76300
O552        O  0.54628889  0.08382554  0.65139615    -0.76500
C553        C  0.57030668  0.07495336  0.63768707     1.04100
O554        O  0.53239111  0.00045598  0.61231998    -0.83800
O555        O  0.54672894  0.47279893  0.67984003    -0.80900
C556        C  0.52502621  0.46488671  0.70004155     0.99700
O557        O  0.50873976  0.48326032  0.71619499    -0.80900
O558        O  0.97641025  0.03286753  0.72030984    -0.83500
C559        C  0.96155881  0.03061429  0.68990751     1.04100
O560        O  0.97274401  0.03706792  0.65782979    -0.76300
O561        O  0.51572260  0.04425145  0.60122664    -0.76500
C562        C  0.52033393  0.01840917  0.59010033     1.04100
Cr563      Cr  0.55755142  0.01196450  0.65656759     1.93700
Cr564      Cr  0.51897782  0.02401790  0.72807396     1.93200
Cr565      Cr  0.51006584  0.05984195  0.65484709     1.39100
O566        O  0.52913465  0.03177156  0.67987649    -1.21600
O567        O  0.66692150  0.20270082  0.65132669    -0.83800
O568        O  0.66802607  0.24878011  0.70248884    -0.80900
C569        C  0.66639279  0.23545803  0.73408163     0.99600
O570        O  0.68735838  0.21969545  0.74521951    -0.80900
O571        O  0.74021491  0.18899824  0.74486578    -0.83500
C572        C  0.73816428  0.16410524  0.72966183     1.04200
O573        O  0.73216453  0.16139401  0.69474607    -0.76300
O574        O  0.70244267  0.17455878  0.62936657    -0.76500
C575        C  0.67553150  0.17870842  0.63725666     1.04100
O576        O  0.70560076  0.23396432  0.60098190    -0.83800
O577        O  0.71400193  0.27595299  0.65863200    -0.80900
C578        C  0.72080174  0.28657511  0.69090749     0.99700
O579        O  0.71860301  0.27132014  0.72091807    -0.80900
O580        O  0.76831494  0.23944109  0.71466690    -0.83500
C581        C  0.78658302  0.22405388  0.69685273     1.04100
O582        O  0.77860902  0.20246391  0.67642000    -0.76300
O583        O  0.74941101  0.21676061  0.61027329    -0.76500
C584        C  0.73111797  0.22911914  0.58887420     1.04100
Cr585      Cr  0.69103637  0.23877495  0.65516706     1.93700
Cr586      Cr  0.72775063  0.22880901  0.72731999     1.93200
Cr587      Cr  0.73898108  0.19125002  0.65457771     1.39100
O588        O  0.71942190  0.21929198  0.67903583    -1.21600
O589        O  0.79711850  0.33304427  0.34857054    -0.83800
O590        O  0.75101795  0.33334798  0.29731283    -0.80900
C591        C  0.76414420  0.33556630  0.26567498     0.99600
O592        O  0.78016481  0.31504572  0.25385974    -0.80900
O593        O  0.81082192  0.26211464  0.25172558    -0.83500
C594        C  0.83569104  0.26321012  0.26722898     1.04200
O595        O  0.83828812  0.26846788  0.30236825    -0.76300
O596        O  0.82518503  0.29688090  0.36882506    -0.76500
C597        C  0.82113196  0.32400578  0.36214174     1.04100
O598        O  0.76549333  0.29330343  0.39698754    -0.83800
O599        O  0.72350015  0.28662043  0.33880870    -0.80900
C600        C  0.71290721  0.28083798  0.30614583     0.99700
O601        O  0.72838525  0.28341569  0.27636495    -0.80900
O602        O  0.76014637  0.23346178  0.28035492    -0.83500
C603        C  0.77530126  0.21471148  0.29763376     1.04100
O604        O  0.79676958  0.22206409  0.31865994    -0.76300
O605        O  0.78255939  0.24968125  0.38600516    -0.76500
C606        C  0.77010398  0.26748813  0.40802743     1.04100
Cr607      Cr  0.76089788  0.30919412  0.34351717     1.93700
Cr608      Cr  0.77094023  0.27429951  0.26974630     1.93200
Cr609      Cr  0.80823123  0.26103307  0.34215139     1.39100
O610        O  0.78032503  0.28132780  0.31845130    -1.21600
O611        O  0.95231631  0.42509066  0.36959242    -0.83800
O612        O  0.98121156  0.41198507  0.30356389    -0.80900
C613        C  0.98698082  0.41459814  0.26858636     0.99600
O614        O  0.98815051  0.43943843  0.25295559    -0.80900
O615        O  0.93533739  0.47083382  0.25349465    -0.83500
C616        C  0.91461544  0.48681975  0.26494239     1.04200
O617        O  0.91642665  0.49945031  0.29704661    -0.76300
O618        O  0.91632800  0.45279946  0.34802813    -0.76500
C619        C  0.92527939  0.42891832  0.36213031     1.04100
O620        O  0.99944668  0.46758054  0.38725214    -0.83800
O621        O  0.52771326  0.45291580  0.32038070    -0.80900
C622        C  0.53545634  0.47421398  0.29932859     0.99700
O623        O  0.51694436  0.48977178  0.28222827    -0.80900
O624        O  0.96732201  0.02206443  0.27773647    -0.83500
C625        C  0.96970072  0.03719480  0.30787464     1.04100
O626        O  0.96299204  0.02643294  0.34012617    -0.76300
O627        O  0.95555566  0.48413798  0.39771659    -0.76500
C628        C  0.98132845  0.47965948  0.40917965     1.04100
Cr629      Cr  0.98842001  0.44189250  0.34335365     1.93700
Cr630      Cr  0.97607636  0.47944286  0.27076464     1.93200
Cr631      Cr  0.94019783  0.48911047  0.34383514     1.39100
O632        O  0.96838177  0.46982549  0.31923591    -1.21600
O633        O  0.91724509  0.29625099  0.84852532    -0.83800
O634        O  0.91779631  0.24940208  0.79801995    -0.80900
C635        C  0.91588789  0.26269365  0.76652299     0.99600
O636        O  0.93656099  0.27885084  0.75551792    -0.80900
O637        O  0.98895572  0.31006585  0.75517111    -0.83500
C638        C  0.98924351  0.33460798  0.77154889     1.04200
O639        O  0.98513868  0.33683276  0.80697071    -0.76300
O640        O  0.95315355  0.32402817  0.87046018    -0.76500
C641        C  0.92622972  0.32032440  0.86207772     1.04100
O642        O  0.95464476  0.26433335  0.89963532    -0.83800
O643        O  0.96340371  0.22222139  0.84138351    -0.80900
C644        C  0.97025300  0.21173236  0.80895650     0.99700
O645        O  0.96873867  0.22729103  0.77906881    -0.80900
O646        O  0.51828143  0.25963747  0.78349211    -0.83500
C647        C  0.53674158  0.27327401  0.80333606     1.04100
O648        O  0.52921944  0.29368435  0.82596201    -0.76300
O649        O  0.99885104  0.28035908  0.89112099    -0.76500
C650        C  0.98006597  0.26861745  0.91230824     1.04100
Cr651      Cr  0.94083388  0.25971437  0.84505268     1.93700
Cr652      Cr  0.97728757  0.26999261  0.77259611     1.93200
Cr653      Cr  0.98976606  0.30623215  0.84662282     1.39100
O654        O  0.96957616  0.27896283  0.82134533    -1.21600
O655        O  0.83388574  0.45341729  0.84283529    -0.83800
O656        O  0.83230911  0.49953035  0.79143615    -0.80900
C657        C  0.83432877  0.48676586  0.75946888     0.99600
O658        O  0.81388208  0.47052734  0.74788832    -0.80900
O659        O  0.76202146  0.43821188  0.74726914    -0.83500
C660        C  0.76457277  0.41331854  0.76232948     1.04200
O661        O  0.77044106  0.41063072  0.79729733    -0.76300
O662        O  0.79880947  0.42428582  0.86361944    -0.76500
C663        C  0.82571659  0.42915784  0.85660839     1.04100
O664        O  0.79349529  0.48397302  0.89211565    -0.83800
O665        O  0.78536287  0.02578038  0.83424401    -0.80900
C666        C  0.77894019  0.03640832  0.80184701     0.99700
O667        O  0.78099752  0.02105262  0.77191220    -0.80900
O668        O  0.73214511  0.48764208  0.77739337    -0.83500
C669        C  0.71421563  0.47169854  0.79496251     1.04100
O670        O  0.72262556  0.45017392  0.81515072    -0.76300
O671        O  0.75048228  0.46504826  0.88204736    -0.76500
C672        C  0.76801995  0.47821182  0.90376112     1.04100
Cr673      Cr  0.80888685  0.48897264  0.83826726     1.93700
Cr674      Cr  0.77312528  0.47829476  0.76529112     1.93200
Cr675      Cr  0.76225716  0.44008641  0.83762930     1.39100
O676        O  0.78126712  0.46883897  0.81371921    -1.21600
O677        O  0.54672618  0.16511007  0.15295437    -0.83800
O678        O  0.50147062  0.16560211  0.20575674    -0.80900
C679        C  0.51469995  0.16377527  0.23741125     0.99600
O680        O  0.53069338  0.18452610  0.24870003    -0.80900
O681        O  0.56174439  0.23738311  0.24865596    -0.83500
C682        C  0.58652765  0.23575173  0.23304789     1.04200
O683        O  0.58896147  0.22963429  0.19808864    -0.76300
O684        O  0.57491188  0.20087689  0.13187023    -0.76500
C685        C  0.57062402  0.17383019  0.13864079     1.04100
O686        O  0.51448560  0.20495596  0.10501157    -0.83800
O687        O  0.97354233  0.21225328  0.16398302    -0.80900
C688        C  0.96328365  0.21860013  0.19662487     0.99700
O689        O  0.97902370  0.21626883  0.22618119    -0.80900
O690        O  0.51124142  0.26591475  0.21984618    -0.83500
C691        C  0.52676777  0.28421589  0.20228441     1.04100
O692        O  0.54809705  0.27629452  0.18143348    -0.76300
O693        O  0.53272854  0.24830386  0.11476894    -0.76500
C694        C  0.51942881  0.23059389  0.09343513     1.04100
Cr695      Cr  0.51073115  0.18936283  0.15880671     1.93700
Cr696      Cr  0.52170887  0.22515313  0.23163436     1.93200
Cr697      Cr  0.55868126  0.23701402  0.15844651     1.39100
O698        O  0.53070682  0.21729494  0.18297788    -1.21600
O699        O  0.70415243  0.08247227  0.14536532    -0.83800
O700        O  0.75000934  0.08234160  0.19689697    -0.80900
C701        C  0.73677678  0.08477396  0.22846268     0.99600
O702        O  0.72086538  0.06419924  0.24051048    -0.80900
O703        O  0.68990685  0.01114049  0.24248095    -0.83500
C704        C  0.66497552  0.01245130  0.22721517     1.04200
O705        O  0.66225687  0.01820972  0.19224947    -0.76300
O706        O  0.67510170  0.04680379  0.12604018    -0.76500
C707        C  0.67969151  0.07380894  0.13269663     1.04100
O708        O  0.73570221  0.04223025  0.09699403    -0.83800
O709        O  0.77758905  0.03520401  0.15569361    -0.80900
C710        C  0.78810804  0.02942151  0.18845673     0.99700
O711        O  0.77245381  0.03217068  0.21804869    -0.80900
O712        O  0.74015428  0.48254554  0.21300178    -0.83500
C713        C  0.72475635  0.46408080  0.19554440     1.04100
O714        O  0.70321559  0.47167499  0.17483919    -0.76300
O715        O  0.71675821  0.99927085  0.10730327    -0.76500
C716        C  0.72980750  0.01678024  0.08544576     1.04100
Cr717      Cr  0.74020403  0.05815154  0.15060188     1.93700
Cr718      Cr  0.72975880  0.02333838  0.22428929     1.93200
Cr719      Cr  0.69192385  0.01074709  0.15198585     1.39100
O720        O  0.72034595  0.03055605  0.17557883    -1.21600
C721        C  0.65619690  0.09512241  0.12697324    -0.17000
C722        C  0.63646593  0.11315398  0.12580166     0.07100
C723        C  0.61330608  0.13446974  0.12725456     0.08900
C724        C  0.59375459  0.15252106  0.13074905    -0.17800
C725        C  0.73768626  0.00790743  0.04649702    -0.17000
C726        C  0.74426071  0.00092124  0.01381617     0.07100
C727        C  0.75216044  0.49299703  0.97526718     0.08900
C728        C  0.75917018  0.48629955  0.94264046    -0.17800
C729        C  0.51022935  0.23940507  0.05503232    -0.17000
C730        C  0.50272557  0.24624320  0.02268402     0.07100
C731        C  0.99430756  0.25397142  0.98434184     0.08900
C732        C  0.98757337  0.26050037  0.95159572    -0.17800
C733        C  0.84749436  0.40632778  0.86367182    -0.17000
C734        C  0.86582865  0.38700694  0.86672229     0.07100
C735        C  0.88732280  0.36401968  0.86805562     0.08900
C736        C  0.90532032  0.34425659  0.86713900    -0.17800
C737        C  0.50934739  0.13846453  0.26132812    -0.17000
C738        C  0.50148120  0.11668635  0.27830645     0.07100
C739        C  0.99017159  0.09039063  0.29445975     0.08900
C740        C  0.98021101  0.06690328  0.30401612    -0.17800
C741        C  0.99411648  0.38870918  0.24678004    -0.17000
C742        C  0.00216994  0.36633137  0.23149501     0.07100
C743        C  0.51230854  0.33914158  0.21686927     0.08900
C744        C  0.52009511  0.31480503  0.20772408    -0.17800
C745        C  0.63915486  0.00563414  0.24955517    -0.17000
C746        C  0.61703411  0.99795671  0.26592858     0.07100
C747        C  0.59016566  0.48832190  0.28225668     0.08900
C748        C  0.56603802  0.48074960  0.29280789    -0.17800
C749        C  0.81811147  0.01972632  0.19376737    -0.17000
C750        C  0.84163141  0.01067461  0.20501120     0.07100
C751        C  0.86781461  0.50028288  0.22288234     0.08900
C752        C  0.88938603  0.49268413  0.24074081    -0.17800
C753        C  0.84454921  0.34514250  0.36917945    -0.17000
C754        C  0.86374357  0.36366020  0.37154220     0.07100
C755        C  0.88587334  0.38604547  0.37146245     0.08900
C756        C  0.90420156  0.40541696  0.36902586    -0.17800
C757        C  0.73189981  0.43366282  0.20097566    -0.17000
C758        C  0.74026286  0.40964056  0.21049707     0.07100
C759        C  0.75083559  0.38297485  0.22599675     0.08900
C760        C  0.75862948  0.36100398  0.24237862    -0.17800
C761        C  0.74191852  0.11069118  0.25125587    -0.17000
C762        C  0.74935323  0.13311869  0.26703696     0.07100
C763        C  0.75962232  0.16017816  0.28209773     0.08900
C764        C  0.76794015  0.18428119  0.29166651    -0.17800
C765        C  0.93346528  0.22852278  0.20160575    -0.17000
C766        C  0.90989743  0.23788127  0.21186030     0.07100
C767        C  0.88350179  0.24866804  0.22833770     0.08900
C768        C  0.86155634  0.25659839  0.24490030    -0.17800
C769        C  0.68302174  0.27123910  0.30124462    -0.17000
C770        C  0.65964991  0.26196813  0.29020418     0.07100
C771        C  0.63383455  0.25101828  0.27247454     0.08900
C772        C  0.61235968  0.24276304  0.25517947    -0.17800
C773        C  0.73921813  0.23727804  0.54988786    -0.17000
C774        C  0.74609571  0.24389690  0.51727476     0.07100
C775        C  0.75435618  0.25169723  0.47896358     0.08900
C776        C  0.76149630  0.25858804  0.44654482    -0.17800
C777        C  0.56718468  0.26538023  0.79856523    -0.17000
C778        C  0.59140642  0.25706496  0.78945989     0.07100
C779        C  0.61856610  0.24716953  0.77423895     0.08900
C780        C  0.64089445  0.24018160  0.75785145    -0.17800
C781        C  0.89048040  0.25744725  0.74275477    -0.17000
C782        C  0.86831494  0.24992037  0.72638406     0.07100
C783        C  0.84136040  0.23956912  0.71103468     0.08900
C784        C  0.81718525  0.23124265  0.70173365    -0.17800
C785        C  0.76956143  0.06635858  0.79743860    -0.17000
C786        C  0.76101162  0.09008742  0.78685777     0.07100
C787        C  0.75134498  0.11648114  0.76948467     0.08900
C788        C  0.74424204  0.13832925  0.75221874    -0.17800
C789        C  0.75886488  0.38751256  0.73963643    -0.17000
C790        C  0.75138460  0.36576706  0.72240574     0.07100
C791        C  0.74067483  0.33966679  0.70529988     0.08900
C792        C  0.73107663  0.31625677  0.69503101    -0.17800
C793        C  0.98990628  0.48789771  0.44801233    -0.17000
C794        C  0.99700345  0.49465670  0.48052586     0.07100
C795        C  0.50527864  0.00261258  0.51882824     0.08900
C796        C  0.51218238  0.00961202  0.55132530    -0.17800
C797        C  0.65417048  0.15545639  0.63091058    -0.17000
C798        C  0.63556971  0.13636840  0.62887837     0.07100
C799        C  0.61316201  0.11433818  0.62901732     0.08900
C800        C  0.59378929  0.09604661  0.63124337    -0.17800
C801        C  0.60953900  0.00601639  0.75373574    -0.17000
C802        C  0.63188192  0.99742958  0.76864897     0.07100
C803        C  0.65909349  0.48658607  0.78232350     0.08900
C804        C  0.68349470  0.47833570  0.79051938    -0.17800
C805        C  0.85955840  0.49268516  0.73564841    -0.17000
C806        C  0.88135123  0.50047821  0.71865442     0.07100
C807        C  0.90786702  0.01127665  0.70257468     0.08900
C808        C  0.93163333  0.02067890  0.69326858    -0.17800
C809        C  0.50615273  0.11056970  0.75756750    -0.17000
C810        C  0.49878888  0.13208291  0.77549928     0.07100
C811        C  0.98858636  0.15816862  0.79340586     0.08900
C812        C  0.97967438  0.18172810  0.80434465    -0.17800
C813        C  0.51896439  0.43431001  0.70678065    -0.17000
C814        C  0.51189779  0.41008648  0.71737055     0.07100
C815        C  0.00282385  0.38303272  0.73356233     0.08900
C816        C  0.99567169  0.36068323  0.74969383    -0.17800
O817        O  0.57422693  0.54799697  0.63019084    -0.83800
O818        O  0.58680205  0.51989047  0.69692955    -0.80900
C819        C  0.58383226  0.51351370  0.73167709     0.99600
O820        O  0.55877935  0.51181032  0.74666489    -0.80900
O821        O  0.52760460  0.56462936  0.74532425    -0.83500
C822        C  0.51182060  0.58537172  0.73359545     1.04200
O823        O  0.49926296  0.58357783  0.70144990    -0.76300
O824        O  0.54626751  0.58385628  0.65142519    -0.76500
C825        C  0.57028094  0.57498570  0.63769836     1.04100
O826        O  0.53234810  0.50050315  0.61230443    -0.83800
O827        O  0.54676624  0.97278691  0.67988498    -0.80900
C828        C  0.52504943  0.96487675  0.70006189     0.99700
O829        O  0.50874811  0.98325179  0.71618786    -0.80900
O830        O  0.97638785  0.53288957  0.72027723    -0.83500
C831        C  0.96153673  0.53063879  0.68987432     1.04100
O832        O  0.97272191  0.53709831  0.65779824    -0.76300
O833        O  0.51569830  0.54430820  0.60123767    -0.76500
C834        C  0.52030054  0.51846919  0.59009544     1.04100
Cr835      Cr  0.55752015  0.51198559  0.65654912     1.93700
Cr836      Cr  0.51896405  0.52402856  0.72807929     1.93200
Cr837      Cr  0.51004249  0.55987192  0.65486932     1.39100
O838        O  0.52911316  0.53179211  0.67988106    -1.21600
O839        O  0.66693027  0.70270846  0.65127745    -0.83800
O840        O  0.66803648  0.74877669  0.70245263    -0.80900
C841        C  0.66639955  0.73545407  0.73404476     0.99600
O842        O  0.68736102  0.71968775  0.74518646    -0.80900
O843        O  0.74021411  0.68898152  0.74483621    -0.83500
C844        C  0.73814926  0.66408899  0.72963322     1.04200
O845        O  0.73213934  0.66138114  0.69472043    -0.76300
O846        O  0.70244747  0.67456058  0.62932282    -0.76500
C847        C  0.67553541  0.67871561  0.63720453     1.04100
O848        O  0.70563603  0.73396859  0.60096120    -0.83800
O849        O  0.71402143  0.77595221  0.65861813    -0.80900
C850        C  0.72081179  0.78657276  0.69089792     0.99700
O851        O  0.71861330  0.77131244  0.72090446    -0.80900
O852        O  0.76831969  0.73942561  0.71464871    -0.83500
C853        C  0.78658818  0.72402535  0.69685589     1.04100
O854        O  0.77861169  0.70243163  0.67643070    -0.76300
O855        O  0.74943864  0.71674998  0.61027565    -0.76500
C856        C  0.73115707  0.72911823  0.58887090     1.04100
Cr857      Cr  0.69105331  0.73877627  0.65513681     1.93700
Cr858      Cr  0.72775484  0.72879748  0.72729748     1.93200
Cr859      Cr  0.73898408  0.69123640  0.65456177     1.39100
O860        O  0.71942892  0.71928481  0.67901220    -1.21600
O861        O  0.79715368  0.83302329  0.34858476    -0.83800
O862        O  0.75102979  0.83332078  0.29736002    -0.80900
C863        C  0.76414658  0.83554653  0.26571608     0.99600
O864        O  0.78016368  0.81502844  0.25388424    -0.80900
O865        O  0.81081821  0.76209518  0.25170925    -0.83500
C866        C  0.83569512  0.76318508  0.26719129     1.04200
O867        O  0.83831098  0.76844299  0.30232761    -0.76300
O868        O  0.82524320  0.79686180  0.36879611    -0.76500
C869        C  0.82117395  0.82398846  0.36213990     1.04100
O870        O  0.76556566  0.79327930  0.39701471    -0.83800
O871        O  0.72354476  0.78657870  0.33887758    -0.80900
C872        C  0.71293600  0.78079645  0.30622379     0.99700
O873        O  0.72839530  0.78339379  0.27642933    -0.80900
O874        O  0.76015879  0.73344354  0.28038336    -0.83500
C875        C  0.77531949  0.71469258  0.29765214     1.04100
O876        O  0.79679865  0.72204259  0.31866164    -0.76300
O877        O  0.78263258  0.74965949  0.38601912    -0.76500
C878        C  0.77018561  0.76746575  0.40804956     1.04100
Cr879      Cr  0.76093769  0.80916573  0.34355299     1.93700
Cr880      Cr  0.77094722  0.77428050  0.26977002     1.93200
Cr881      Cr  0.80827700  0.76101114  0.34214011     1.39100
O882        O  0.78035800  0.78130561  0.31846696    -1.21600
O883        O  0.95231372  0.92510516  0.36963360    -0.83800
O884        O  0.98116521  0.91198365  0.30357963    -0.80900
C885        C  0.98695925  0.91459119  0.26860865     0.99600
O886        O  0.98815397  0.93943018  0.25297931    -0.80900
O887        O  0.93532789  0.97080788  0.25350708    -0.83500
C888        C  0.91460131  0.98678843  0.26495497     1.04200
O889        O  0.91641076  0.99942832  0.29705424    -0.76300
O890        O  0.91632322  0.95281056  0.34807402    -0.76500
C891        C  0.92527598  0.92893305  0.36218270     1.04100
O892        O  0.99945705  0.96758067  0.38724703    -0.83800
O893        O  0.52768438  0.95285617  0.32034368    -0.80900
C894        C  0.53544791  0.97417131  0.29933336     0.99700
O895        O  0.51694862  0.98977267  0.28227758    -0.80900
O896        O  0.96735085  0.52207607  0.27775874    -0.83500
C897        C  0.96972871  0.53719555  0.30790757     1.04100
O898        O  0.96300495  0.52642502  0.34015024    -0.76300
O899        O  0.95557576  0.98416748  0.39772126    -0.76500
C900        C  0.98134866  0.97967266  0.40917831     1.04100
Cr901      Cr  0.98840755  0.94189088  0.34335942     1.93700
Cr902      Cr  0.97606465  0.97943387  0.27077040     1.93200
Cr903      Cr  0.94019325  0.98911760  0.34384487     1.39100
O904        O  0.96837161  0.96982623  0.31924522    -1.21600
O905        O  0.91729130  0.79628730  0.84857735    -0.83800
O906        O  0.91779266  0.74942092  0.79810189    -0.80900
C907        C  0.91587441  0.76269517  0.76659259     0.99600
O908        O  0.93654390  0.77884692  0.75556218    -0.80900
O909        O  0.98894608  0.81004795  0.75515372    -0.83500
C910        C  0.98924147  0.83459355  0.77152098     1.04200
O911        O  0.98515197  0.83682976  0.80694398    -0.76300
O912        O  0.95321805  0.82405342  0.87047900    -0.76500
C913        C  0.92629066  0.82036176  0.86210846     1.04100
O914        O  0.95471533  0.76437221  0.89967348    -0.83800
O915        O  0.96341796  0.72223866  0.84143265    -0.80900
C916        C  0.97024378  0.71173881  0.80900294     0.99700
O917        O  0.96871865  0.72728952  0.77910963    -0.80900
O918        O  0.51828816  0.75962278  0.78351337    -0.83500
C919        C  0.53675820  0.77327986  0.80331720     1.04100
O920        O  0.52924673  0.79370814  0.82592078    -0.76300
O921        O  0.99892318  0.78037673  0.89110260    -0.76500
C922        C  0.98014802  0.76864549  0.91231663     1.04100
Cr923      Cr  0.94086411  0.75974086  0.84510607     1.93700
Cr924      Cr  0.97727755  0.76998448  0.77260675     1.93200
Cr925      Cr  0.98980883  0.80624321  0.84660323     1.39100
O926        O  0.96959766  0.77897120  0.82135965    -1.21600
O927        O  0.83390432  0.95343819  0.84283197    -0.83800
O928        O  0.83230722  0.99955069  0.79144194    -0.80900
C929        C  0.83433013  0.98678295  0.75947694     0.99600
O930        O  0.81388296  0.97054722  0.74789088    -0.80900
O931        O  0.76201890  0.93823251  0.74725762    -0.83500
C932        C  0.76457709  0.91333478  0.76230320     1.04200
O933        O  0.77046321  0.91063876  0.79726468    -0.76300
O934        O  0.79884231  0.92427733  0.86358622    -0.76500
C935        C  0.82574790  0.92916939  0.85658840     1.04100
O936        O  0.79350477  0.98397154  0.89212361    -0.83800
O937        O  0.78536978  0.52577599  0.83422397    -0.80900
C938        C  0.77894412  0.53639763  0.80182394     0.99700
O939        O  0.78099733  0.52103669  0.77189320    -0.80900
O940        O  0.73214850  0.98764958  0.77741382    -0.83500
C941        C  0.71422501  0.97169463  0.79497617     1.04100
O942        O  0.72264237  0.95016667  0.81515407    -0.76300
O943        O  0.75050437  0.96501570  0.88206363    -0.76500
C944        C  0.76803677  0.97818758  0.90377708     1.04100
Cr945      Cr  0.80889087  0.98898340  0.83827384     1.93700
Cr946      Cr  0.77312713  0.97831060  0.76529833     1.93200
Cr947      Cr  0.76227955  0.94007793  0.83761894     1.39100
O948        O  0.78127621  0.96884516  0.81372180    -1.21600
O949        O  0.54678342  0.66512510  0.15299341    -0.83800
O950        O  0.50151696  0.66558623  0.20577546    -0.80900
C951        C  0.51473890  0.66375480  0.23743536     0.99600
O952        O  0.53072127  0.68450811  0.24874083    -0.80900
O953        O  0.56176492  0.73736331  0.24873729    -0.83500
C954        C  0.58655237  0.73573224  0.23313996     1.04200
O955        O  0.58899367  0.72963343  0.19817587    -0.76300
O956        O  0.57496295  0.70090376  0.13193046    -0.76500
C957        C  0.57067771  0.67385505  0.13868322     1.04100
O958        O  0.51455035  0.70497415  0.10505010    -0.83800
O959        O  0.97357060  0.71224642  0.16400427    -0.80900
C960        C  0.96329968  0.71859142  0.19663877     0.99700
O961        O  0.97903229  0.71627113  0.22620310    -0.80900
O962        O  0.51126454  0.76590130  0.21991645    -0.83500
C963        C  0.52679265  0.78420855  0.20236808     1.04100
O964        O  0.54812970  0.77629617  0.18152590    -0.76300
O965        O  0.53278296  0.74832378  0.11483277    -0.76500
C966        C  0.51949861  0.73061384  0.09348069     1.04100
Cr967      Cr  0.51078293  0.68936401  0.15883940     1.93700
Cr968      Cr  0.52173335  0.72513743  0.23168914     1.93200
Cr969      Cr  0.55872331  0.73702553  0.15852267     1.39100
O970        O  0.53074503  0.71729519  0.18303191    -1.21600
O971        O  0.70416816  0.58248762  0.14535148    -0.83800
O972        O  0.75002196  0.58234788  0.19687866    -0.80900
C973        C  0.73678831  0.58477634  0.22844431     0.99600
O974        O  0.72087814  0.56420017  0.24048852    -0.80900
O975        O  0.68991475  0.51115124  0.24245302    -0.83500
C976        C  0.66498121  0.51248748  0.22719667     1.04200
O977        O  0.66226157  0.51824829  0.19223148    -0.76300
O978        O  0.67511311  0.54682659  0.12601436    -0.76500
C979        C  0.67970873  0.57382914  0.13267576     1.04100
O980        O  0.73570197  0.54224621  0.09697290    -0.83800
O981        O  0.77759880  0.53521529  0.15566190    -0.80900
C982        C  0.78811980  0.52943269  0.18842406     0.99700
O983        O  0.77246394  0.53217143  0.21801635    -0.80900
O984        O  0.74015094  0.98253999  0.21304965    -0.83500
C985        C  0.72476290  0.96407015  0.19558597     1.04100
O986        O  0.70322940  0.97165725  0.17486327    -0.76300
O987        O  0.71674955  0.49928833  0.10727856    -0.76500
C988        C  0.72979767  0.51679927  0.08542154     1.04100
Cr989      Cr  0.74021393  0.55816369  0.15057920     1.93700
Cr990      Cr  0.72976792  0.52334251  0.22425743     1.93200
Cr991      Cr  0.69192221  0.51076903  0.15196304     1.39100
O992        O  0.72035298  0.53056843  0.17555198    -1.21600
C993        C  0.65622296  0.59514523  0.12695209    -0.17000
C994        C  0.63649971  0.61318182  0.12578785     0.07100
C995        C  0.61335048  0.63450167  0.12725807     0.08900
C996        C  0.59380495  0.65255364  0.13077108    -0.17800
C997        C  0.73766536  0.50793276  0.04646935    -0.17000
C998        C  0.74423570  0.50095380  0.01378638     0.07100
C999        C  0.75218404  0.99295930  0.97529522     0.08900
C1000       C  0.75918950  0.98626379  0.94266429    -0.17800
C1001       C  0.51032235  0.73942624  0.05506449    -0.17000
C1002       C  0.50283341  0.74626340  0.02270753     0.07100
C1003       C  0.99441448  0.75399356  0.98434753     0.08900
C1004       C  0.98767772  0.76052782  0.95160178    -0.17800
C1005       C  0.84754077  0.90635303  0.86365064    -0.17000
C1006       C  0.86588867  0.88704547  0.86670801     0.07100
C1007       C  0.88739404  0.86406883  0.86805758     0.08900
C1008       C  0.90539299  0.84430629  0.86715724    -0.17800
C1009       C  0.50939165  0.63843642  0.26134179    -0.17000
C1010       C  0.50153110  0.61665740  0.27832364     0.07100
C1011       C  0.99021568  0.59039264  0.29452123     0.08900
C1012       C  0.98025161  0.56690318  0.30406953    -0.17800
C1013       C  0.99410076  0.88870085  0.24681153    -0.17000
C1014       C  0.00216433  0.86632731  0.23152664     0.07100
C1015       C  0.51231316  0.83913100  0.21693488     0.08900
C1016       C  0.52010983  0.81479478  0.20780630    -0.17800
C1017       C  0.63915829  0.50569809  0.24954727    -0.17000
C1018       C  0.61703480  0.49803963  0.26593056     0.07100
C1019       C  0.59016541  0.98823329  0.28224931     0.08900
C1020       C  0.56603494  0.98067405  0.29280351    -0.17800
C1021       C  0.81812798  0.51975229  0.19373443    -0.17000
C1022       C  0.84165150  0.51071239  0.20498380     0.07100
C1023       C  0.86779437  0.00023712  0.22290225     0.08900
C1024       C  0.88936790  0.99263997  0.24075596    -0.17800
C1025       C  0.84457864  0.84513344  0.36919700    -0.17000
C1026       C  0.86376049  0.86366165  0.37158156     0.07100
C1027       C  0.88587784  0.88605726  0.37152159     0.08900
C1028       C  0.90420035  0.90543368  0.36908992    -0.17800
C1029       C  0.73190820  0.93365389  0.20102964    -0.17000
C1030       C  0.74026754  0.90963184  0.21055785     0.07100
C1031       C  0.75083430  0.88296409  0.22605744     0.08900
C1032       C  0.75862622  0.86098969  0.24243282    -0.17800
C1033       C  0.74192685  0.61068980  0.25124357    -0.17000
C1034       C  0.74935866  0.63311233  0.26703735     0.07100
C1035       C  0.75962929  0.66016519  0.28211315     0.08900
C1036       C  0.76795273  0.68426420  0.29168867    -0.17800
C1037       C  0.93347533  0.72850053  0.20159862    -0.17000
C1038       C  0.90989900  0.73785134  0.21182934     0.07100
C1039       C  0.88349486  0.74863483  0.22828524     0.08900
C1040       C  0.86154915  0.75656729  0.24484427    -0.17800
C1041       C  0.68305383  0.77117774  0.30134823    -0.17000
C1042       C  0.65968077  0.76190038  0.29032039     0.07100
C1043       C  0.63386040  0.75095878  0.27259324     0.08900
C1044       C  0.61238229  0.74272068  0.25529023    -0.17800
C1045       C  0.73927577  0.73727944  0.54989612    -0.17000
C1046       C  0.74617130  0.74389403  0.51729090     0.07100
C1047       C  0.75444770  0.75168437  0.47898585     0.08900
C1048       C  0.76159119  0.75856691  0.44656820    -0.17800
C1049       C  0.56719903  0.76538995  0.79852679    -0.17000
C1050       C  0.59141906  0.75707602  0.78941639     0.07100
C1051       C  0.61857625  0.74717699  0.77419691     0.08900
C1052       C  0.64090254  0.74018306  0.75781168    -0.17800
C1053       C  0.89046388  0.75743073  0.74283415    -0.17000
C1054       C  0.86830539  0.74989210  0.72645524     0.07100
C1055       C  0.84136111  0.73953210  0.71108211     0.08900
C1056       C  0.81719132  0.73120420  0.70175793    -0.17800
C1057       C  0.76956365  0.56634647  0.79740725    -0.17000
C1058       C  0.76100867  0.59007186  0.78682124     0.07100
C1059       C  0.75133463  0.61646240  0.76944735     0.08900
C1060       C  0.74422717  0.63831041  0.75218490    -0.17800
C1061       C  0.75885616  0.88753277  0.73960483    -0.17000
C1062       C  0.75137016  0.86578449  0.72238247     0.07100
C1063       C  0.74066300  0.83967601  0.70529113     0.08900
C1064       C  0.73107431  0.81625948  0.69502922    -0.17800
C1065       C  0.98993611  0.98790288  0.44801303    -0.17000
C1066       C  0.99703662  0.99464896  0.48053138     0.07100
C1067       C  0.50525313  0.50268748  0.51881934     0.08900
C1068       C  0.51215091  0.50968859  0.55131629    -0.17800
C1069       C  0.65416673  0.65546964  0.63085132    -0.17000
C1070       C  0.63555633  0.63638931  0.62882681     0.07100
C1071       C  0.61313847  0.61436745  0.62898773     0.08900
C1072       C  0.59376198  0.59608011  0.63123626    -0.17800
C1073       C  0.60953106  0.50602701  0.75371310    -0.17000
C1074       C  0.63187538  0.49744504  0.76862851     0.07100
C1075       C  0.65909986  0.98656894  0.78234062     0.08900
C1076       C  0.68350216  0.97832207  0.79053536    -0.17800
C1077       C  0.85956602  0.99269252  0.73566605    -0.17000
C1078       C  0.88136508  0.00047498  0.71867970     0.07100
C1079       C  0.90784770  0.51129036  0.70254265     0.08900
C1080       C  0.93161184  0.52069874  0.69323391    -0.17800
C1081       C  0.50612823  0.61057349  0.75760758    -0.17000
C1082       C  0.49876674  0.63208496  0.77554382     0.07100
C1083       C  0.98855428  0.65817351  0.79343458     0.08900
C1084       C  0.97965217  0.68173115  0.80439128    -0.17800
C1085       C  0.51898876  0.93430174  0.70680183    -0.17000
C1086       C  0.51192161  0.91007661  0.71738112     0.07100
C1087       C  0.00282079  0.88300674  0.73352542     0.08900
C1088       C  0.99566549  0.86065954  0.74965387    -0.17800
loop_ 
_geom_bond_atom_site_label_1 
_geom_bond_atom_site_label_2 
_geom_bond_distance 
_geom_bond_site_symmetry_2 
_ccdc_geom_bond_type 
O1          Cr19   2.037       .  S
O1            C9   1.275       .  A
O2          Cr19   1.979       .  S
O2            C3   1.256       .  A
C3            O4   1.263       .  A
C3          C257   1.447       .  S
O4          Cr20   2.013       .  S
O5          Cr20   1.993       .  S
O5            C6   1.261       .  A
C6            O7   1.265   1_455  A
C6          C265   1.450       .  S
O7          Cr21   2.017   1_655  S
O8          Cr21   1.992       .  S
O8            C9   1.266       .  A
C9          C256   1.462       .  S
O10         Cr19   1.998       .  S
O10          C18   1.258       .  A
O11        Cr291   2.030       .  S
O11          C12   1.271       .  A
C12          O13   1.257       .  A
C12         C269   1.446       .  S
O13        Cr292   1.968       .  S
O14        Cr564   2.008       .  S
O14          C15   1.265       .  A
C15          O16   1.267       .  A
C15         C264   1.448       .  S
O16        Cr565   2.004       .  S
O17         Cr21   2.022       .  S
O17          C18   1.262       .  A
C18         C252   1.462       .  S
Cr19        O283   2.030   1_545  S
Cr19         O22   1.782       .  S
Cr20        O285   1.968   1_545  S
Cr20        O558   2.008   1_455  S
Cr20         O22   1.783       .  S
Cr21        O560   2.004   1_455  S
Cr21         O22   1.782       .  S
O23         Cr41   1.990       .  S
O23          C31   1.266       .  A
O24         Cr41   2.013       .  S
O24          C25   1.263       .  A
C25          O26   1.262       .  A
C25         C236   1.448       .  S
O26         Cr42   1.995       .  S
O27         Cr42   2.005       .  S
O27          C28   1.260       .  A
C28          O29   1.257       .  A
C28         C244   1.446       .  S
O29         Cr43   1.983       .  S
O30         Cr43   2.038       .  S
O30          C31   1.276       .  A
C31         C253   1.462       .  S
O32         Cr41   2.019       .  S
O32          C40   1.261       .  A
O33         Cr41   2.003       .  S
O33          C34   1.267       .  A
C34          O35   1.264       .  A
C34         C248   1.444       .  S
O35         Cr42   2.002       .  S
O36         Cr42   1.969       .  S
O36          C37   1.258       .  A
C37          O38   1.272       .  A
C37         C240   1.448       .  S
O38         Cr43   2.033       .  S
O39         Cr43   1.997       .  S
O39          C40   1.257       .  A
C40         C229   1.460       .  S
Cr41         O44   1.783       .  S
Cr42         O44   1.784       .  S
Cr43         O44   1.783       .  S
O45         Cr63   1.992       .  S
O45          C53   1.266       .  A
O46         Cr63   2.008       .  S
O46          C47   1.262       .  A
C47          O48   1.261       .  A
C47         C216   1.443       .  S
O48         Cr64   1.991       .  S
O49         Cr64   2.009       .  S
O49          C50   1.261       .  A
C50          O51   1.257       .  A
C50         C224   1.449       .  S
O51         Cr65   1.985       .  S
O52         Cr65   2.040       .  S
O52          C53   1.276       .  A
C53         C209   1.464       .  S
O54         Cr63   2.016       .  S
O54          C62   1.260       .  A
O55         Cr63   2.006       .  S
O55          C56   1.268       .  A
C56          O57   1.264       .  A
C56         C225   1.447       .  S
O57         Cr64   2.005       .  S
O58         Cr64   1.968       .  S
O58          C59   1.258       .  A
C59          O60   1.272       .  A
C59         C220   1.448       .  S
O60         Cr65   2.032       .  S
O61         Cr65   2.000       .  S
O61          C62   1.257       .  A
C62         C232   1.460       .  S
Cr63         O66   1.784       .  S
Cr64         O66   1.785       .  S
Cr65         O66   1.783       .  S
O67         Cr85   2.040       .  S
O67          C75   1.276       .  A
O68         Cr85   1.979       .  S
O68          C69   1.256       .  A
C69          O70   1.262       .  A
C69         C197   1.446       .  S
O70         Cr86   2.011       .  S
O71         Cr86   1.999       .  S
O71          C72   1.262       .  A
C72          O73   1.265       .  A
C72         C208   1.456       .  S
O73         Cr87   2.020       .  S
O74         Cr87   1.994       .  S
O74          C75   1.267       .  A
C75         C212   1.465       .  S
O76         Cr85   1.997       .  S
O76          C84   1.257       .  A
O77        Cr629   2.032   1_455  S
O77          C78   1.271       .  A
C78          O79   1.258       .  A
C78         C204   1.449       .  S
O79        Cr630   1.970   1_455  S
O80        Cr358   2.006   1_545  S
O80          C81   1.265       .  A
C81          O82   1.268       .  A
C81         C196   1.448       .  S
O82        Cr359   2.005   1_545  S
O83         Cr87   2.023       .  S
O83          C84   1.262       .  A
C84         C249   1.462       .  S
Cr85        O621   2.032       .  S
Cr85         O88   1.785       .  S
Cr86        O623   1.970       .  S
Cr86        O352   2.006       .  S
Cr86         O88   1.785       .  S
Cr87        O354   2.005       .  S
Cr87         O88   1.783       .  S
O89        Cr107   1.994       .  S
O89          C97   1.268       .  A
O90        Cr107   2.009       .  S
O90          C91   1.261       .  A
C91          O92   1.261       .  A
C91         C237   1.449       .  S
O92        Cr108   1.998       .  S
O93        Cr108   2.005       .  S
O93          C94   1.260       .  A
C94          O95   1.256       .  A
C94         C272   1.447       .  S
O95        Cr109   1.981       .  S
O96        Cr109   2.040       .  S
O96          C97   1.278       .  A
C97         C192   1.465       .  S
O98        Cr107   2.021       .  S
O98         C106   1.260       .  A
O99        Cr107   2.006       .  S
O99         C100   1.270       .  A
C100        O101   1.266       .  A
C100        C268   1.448       .  S
O101       Cr108   2.005       .  S
O102       Cr652   1.972   1_455  S
O102        C103   1.258       .  A
C103        O104   1.271       .  A
C103        C233   1.449       .  S
O104       Cr653   2.027   1_455  S
O105       Cr109   1.998       .  S
O105        C106   1.255       .  A
C106        C188   1.463       .  S
Cr107       O110   1.787       .  S
Cr108       O646   1.972       .  S
Cr108       O110   1.787       .  S
Cr109       O648   2.027       .  S
Cr109       O110   1.786       .  S
O111       Cr129   1.995       .  S
O111        C119   1.266       .  A
O112       Cr129   2.015       .  S
O112        C113   1.264       .  A
C113        O114   1.261       .  A
C113        C261   1.449       .  S
O114       Cr130   1.993       .  S
O115       Cr130   2.005       .  S
O115        C116   1.260       .  A
C116        O117   1.257       .  A
C116        C245   1.446       .  S
O117       Cr131   1.986       .  S
O118       Cr131   2.036       .  S
O118        C119   1.275       .  A
C119        C189   1.465       .  S
O120       Cr129   2.022       .  S
O120        C128   1.262       .  A
O121       Cr401   2.003   1_545  S
O121        C122   1.267       .  A
C122        O123   1.264       .  A
C122        C241   1.444       .  S
O123       Cr402   2.002   1_545  S
O124       Cr130   1.969       .  S
O124        C125   1.258       .  A
C125        O126   1.271       .  A
C125        C260   1.446       .  S
O126       Cr131   2.029       .  S
O127       Cr131   2.001       .  S
O127        C128   1.258       .  A
C128        C184   1.465       .  S
Cr129       O393   2.003       .  S
Cr129       O132   1.784       .  S
Cr130       O395   2.002       .  S
Cr130       O132   1.786       .  S
Cr131       O132   1.785       .  S
O133       Cr151   1.996       .  S
O133        C141   1.267       .  A
O134       Cr151   2.013       .  S
O134        C135   1.264       .  A
C135        O136   1.262       .  A
C135        C193   1.449       .  S
O136       Cr152   1.995       .  S
O137       Cr152   2.006       .  S
O137        C138   1.261       .  A
C138        O139   1.258       .  A
C138        C228   1.449       .  S
O139       Cr153   1.988       .  S
O140       Cr153   2.037       .  S
O140        C141   1.275       .  A
C141        C180   1.465       .  S
O142       Cr151   2.018       .  S
O142        C150   1.261       .  A
O143       Cr695   2.007       .  S
O143        C144   1.267       .  A
C144        O145   1.264       .  A
C144        C221   1.448       .  S
O145       Cr696   2.004       .  S
O146       Cr152   1.969       .  S
O146        C147   1.258       .  A
C147        O148   1.271       .  A
C147        C200   1.445       .  S
O148       Cr153   2.027       .  S
O149       Cr153   2.002       .  S
O149        C150   1.258       .  A
C150        C185   1.463       .  S
Cr151       O687   2.007   1_455  S
Cr151       O154   1.784       .  S
Cr152       O689   2.005   1_455  S
Cr152       O154   1.786       .  S
Cr153       O154   1.785       .  S
O155       Cr173   1.998       .  S
O155        C163   1.267       .  A
O156       Cr173   2.011       .  S
O156        C157   1.263       .  A
C157        O158   1.262       .  A
C157        C217   1.448       .  S
O158       Cr174   1.996       .  S
O159       Cr174   2.010       .  S
O159        C160   1.261       .  A
C160        O161   1.256       .  A
C160        C201   1.450       .  S
O161       Cr175   1.985       .  S
O162       Cr175   2.034       .  S
O162        C163   1.275       .  A
C163        C177   1.465       .  S
O164       Cr173   2.021       .  S
O164        C172   1.262       .  A
O165       Cr173   2.015       .  S
O165        C166   1.270       .  A
C166        O167   1.264       .  A
C166        C205   1.455       .  S
O167       Cr174   2.007       .  S
O168       Cr446   1.966       .  S
O168        C169   1.258       .  A
C169        O170   1.271       .  A
C169        C213   1.442       .  S
O170       Cr447   2.026       .  S
O171       Cr175   2.001   1_565  S
O171        C172   1.258   1_565  A
C172        C181   1.465       .  S
Cr173       O176   1.784       .  S
Cr174       O440   1.966   1_545  S
Cr174       O176   1.787       .  S
Cr175       O442   2.026   1_545  S
Cr175       O176   1.787       .  S
C177        C178   1.224       .  T
C178        C179   1.441       .  S
C179        C180   1.224       .  T
C181        C182   1.223       .  T
C182        C455   1.441   1_544  S
C183        C184   1.223       .  T
C183        C454   1.441   1_556  S
C185        C186   1.222       .  T
C186        C731   1.439   1_454  S
C187        C188   1.222       .  T
C187        C730   1.439   1_556  S
C189        C190   1.223       .  T
C190        C191   1.441       .  S
C191        C192   1.223       .  T
C193        C194   1.214       .  T
C194        C739   1.426   1_455  S
C195        C196   1.214       .  T
C195        C738   1.426       .  S
C197        C198   1.212       .  T
C198        C743   1.423       .  S
C199        C200   1.212       .  T
C199        C742   1.423       .  S
C201        C202   1.215   1_545  T
C202        C475   1.427       .  S
C203        C204   1.214       .  T
C203        C474   1.426       .  S
C205        C206   1.218       .  T
C206        C479   1.433       .  S
C207        C208   1.218       .  T
C207        C478   1.433       .  S
C209        C210   1.223       .  T
C210        C211   1.440       .  S
C211        C212   1.223       .  T
C213        C214   1.211       .  T
C214        C215   1.420       .  S
C215        C216   1.211       .  T
C217        C218   1.214       .  T
C218        C219   1.425       .  S
C219        C220   1.214       .  T
C221        C222   1.214       .  T
C222        C223   1.426       .  S
C223        C224   1.214       .  T
C225        C226   1.214       .  T
C226        C227   1.425       .  S
C227        C228   1.214       .  T
C229        C230   1.220       .  T
C230        C231   1.436       .  S
C231        C232   1.220       .  T
C233        C234   1.214       .  T
C234        C235   1.426       .  S
C235        C236   1.214       .  T
C237        C238   1.214       .  T
C238        C239   1.426       .  S
C239        C240   1.214       .  T
C241        C242   1.212       .  T
C242        C243   1.422       .  S
C243        C244   1.212       .  T
C245        C246   1.212       .  T
C246        C247   1.423       .  S
C247        C248   1.212       .  T
C249        C250   1.222       .  T
C250       C1067   1.438       .  S
C251        C252   1.222       .  T
C251       C1066   1.438   1_445  S
C253        C254   1.222       .  T
C254        C255   1.438       .  S
C255        C256   1.222       .  T
C257        C258   1.213   1_545  T
C258        C531   1.424       .  S
C259        C260   1.213       .  T
C259        C530   1.424       .  S
C261        C262   1.214       .  T
C262        C535   1.425       .  S
C263        C264   1.214       .  T
C263        C534   1.425       .  S
C265        C266   1.215   1_455  T
C266        C811   1.426       .  S
C267        C268   1.214       .  T
C267        C810   1.426       .  S
C269        C270   1.213       .  T
C270        C815   1.423       .  S
C271        C272   1.213       .  T
C271        C814   1.423       .  S
O273       Cr291   2.037       .  S
O273        C281   1.275       .  A
O274       Cr291   1.979       .  S
O274        C275   1.256       .  A
C275        O276   1.263       .  A
C275        C529   1.447       .  S
O276       Cr292   2.013       .  S
O277       Cr292   1.993       .  S
O277        C278   1.261       .  A
C278        O279   1.265   1_455  A
C278        C537   1.450       .  S
O279       Cr293   2.017   1_655  S
O280       Cr293   1.992       .  S
O280        C281   1.266       .  A
C281        C528   1.462       .  S
O282       Cr291   1.998       .  S
O282        C290   1.258       .  A
O283        C284   1.271       .  A
C284        O285   1.257       .  A
C284        C541   1.446       .  S
O286       Cr836   2.008       .  S
O286        C287   1.265       .  A
C287        O288   1.267       .  A
C287        C536   1.448       .  S
O288       Cr837   2.004       .  S
O289       Cr293   2.022       .  S
O289        C290   1.262       .  A
C290        C524   1.462       .  S
Cr291       O294   1.782       .  S
Cr292       O830   2.008   1_455  S
Cr292       O294   1.783       .  S
Cr293       O832   2.004   1_455  S
Cr293       O294   1.782       .  S
O295       Cr313   1.990       .  S
O295        C303   1.266       .  A
O296       Cr313   2.013       .  S
O296        C297   1.263       .  A
C297        O298   1.262       .  A
C297        C508   1.448       .  S
O298       Cr314   1.995       .  S
O299       Cr314   2.005       .  S
O299        C300   1.260       .  A
C300        O301   1.257       .  A
C300        C516   1.446       .  S
O301       Cr315   1.983       .  S
O302       Cr315   2.038       .  S
O302        C303   1.276       .  A
C303        C525   1.462       .  S
O304       Cr313   2.019       .  S
O304        C312   1.261       .  A
O305       Cr313   2.003       .  S
O305        C306   1.267       .  A
C306        O307   1.264       .  A
C306        C520   1.445       .  S
O307       Cr314   2.002       .  S
O308       Cr314   1.969       .  S
O308        C309   1.258       .  A
C309        O310   1.272       .  A
C309        C512   1.449       .  S
O310       Cr315   2.033       .  S
O311       Cr315   1.997       .  S
O311        C312   1.257       .  A
C312        C501   1.460       .  S
Cr313       O316   1.783       .  S
Cr314       O316   1.784       .  S
Cr315       O316   1.783       .  S
O317       Cr335   1.992       .  S
O317        C325   1.266       .  A
O318       Cr335   2.008       .  S
O318        C319   1.262       .  A
C319        O320   1.261       .  A
C319        C488   1.443       .  S
O320       Cr336   1.991       .  S
O321       Cr336   2.009       .  S
O321        C322   1.261       .  A
C322        O323   1.257       .  A
C322        C496   1.449       .  S
O323       Cr337   1.985       .  S
O324       Cr337   2.040       .  S
O324        C325   1.276       .  A
C325        C481   1.464       .  S
O326       Cr335   2.016       .  S
O326        C334   1.260       .  A
O327       Cr335   2.006       .  S
O327        C328   1.268       .  A
C328        O329   1.264       .  A
C328        C497   1.446       .  S
O329       Cr336   2.005       .  S
O330       Cr336   1.968       .  S
O330        C331   1.258       .  A
C331        O332   1.272       .  A
C331        C492   1.448       .  S
O332       Cr337   2.032       .  S
O333       Cr337   2.000       .  S
O333        C334   1.257       .  A
C334        C504   1.460       .  S
Cr335       O338   1.784       .  S
Cr336       O338   1.785       .  S
Cr337       O338   1.783       .  S
O339       Cr357   2.040       .  S
O339        C347   1.276       .  A
O340       Cr357   1.979       .  S
O340        C341   1.256       .  A
C341        O342   1.262       .  A
C341        C469   1.446       .  S
O342       Cr358   2.011       .  S
O343       Cr358   1.999       .  S
O343        C344   1.263       .  A
C344        O345   1.265       .  A
C344        C480   1.456       .  S
O345       Cr359   2.020       .  S
O346       Cr359   1.994       .  S
O346        C347   1.267       .  A
C347        C484   1.464       .  S
O348       Cr357   1.997       .  S
O348        C356   1.257       .  A
O349       Cr901   2.032   1_455  S
O349        C350   1.271       .  A
C350        O351   1.258       .  A
C350        C476   1.449       .  S
O351       Cr902   1.970   1_455  S
O352        C353   1.265       .  A
C353        O354   1.268       .  A
C353        C468   1.448       .  S
O355       Cr359   2.023       .  S
O355        C356   1.262       .  A
C356        C521   1.462       .  S
Cr357       O893   2.032       .  S
Cr357       O360   1.785       .  S
Cr358       O895   1.970       .  S
Cr358       O360   1.785       .  S
Cr359       O360   1.783       .  S
O361       Cr379   1.994       .  S
O361        C369   1.268       .  A
O362       Cr379   2.009       .  S
O362        C363   1.261       .  A
C363        O364   1.261       .  A
C363        C509   1.449       .  S
O364       Cr380   1.998       .  S
O365       Cr380   2.005       .  S
O365        C366   1.260       .  A
C366        O367   1.256       .  A
C366        C544   1.447       .  S
O367       Cr381   1.981       .  S
O368       Cr381   2.040       .  S
O368        C369   1.278       .  A
C369        C464   1.465       .  S
O370       Cr379   2.021       .  S
O370        C378   1.260       .  A
O371       Cr379   2.006       .  S
O371        C372   1.270       .  A
C372        O373   1.266       .  A
C372        C540   1.448       .  S
O373       Cr380   2.005       .  S
O374       Cr924   1.972   1_455  S
O374        C375   1.259       .  A
C375        O376   1.271       .  A
C375        C505   1.449       .  S
O376       Cr925   2.027   1_455  S
O377       Cr381   1.998       .  S
O377        C378   1.255       .  A
C378        C460   1.463       .  S
Cr379       O382   1.786       .  S
Cr380       O918   1.972       .  S
Cr380       O382   1.787       .  S
Cr381       O920   2.027       .  S
Cr381       O382   1.786       .  S
O383       Cr401   1.995       .  S
O383        C391   1.266       .  A
O384       Cr401   2.015       .  S
O384        C385   1.264       .  A
C385        O386   1.261       .  A
C385        C533   1.449       .  S
O386       Cr402   1.993       .  S
O387       Cr402   2.005       .  S
O387        C388   1.260       .  A
C388        O389   1.257       .  A
C388        C517   1.446       .  S
O389       Cr403   1.986       .  S
O390       Cr403   2.036       .  S
O390        C391   1.275       .  A
C391        C461   1.465       .  S
O392       Cr401   2.022       .  S
O392        C400   1.262       .  A
O393        C394   1.267       .  A
C394        O395   1.264       .  A
C394        C513   1.444       .  S
O396       Cr402   1.969       .  S
O396        C397   1.258       .  A
C397        O398   1.271       .  A
C397        C532   1.446       .  S
O398       Cr403   2.029       .  S
O399       Cr403   2.001       .  S
O399        C400   1.258       .  A
C400        C456   1.465       .  S
Cr401       O404   1.784       .  S
Cr402       O404   1.786       .  S
Cr403       O404   1.785       .  S
O405       Cr423   1.996       .  S
O405        C413   1.267       .  A
O406       Cr423   2.014       .  S
O406        C407   1.264       .  A
C407        O408   1.262       .  A
C407        C465   1.449       .  S
O408       Cr424   1.995       .  S
O409       Cr424   2.006       .  S
O409        C410   1.261       .  A
C410        O411   1.258       .  A
C410        C500   1.449       .  S
O411       Cr425   1.988       .  S
O412       Cr425   2.036       .  S
O412        C413   1.275       .  A
C413        C452   1.465       .  S
O414       Cr423   2.018       .  S
O414        C422   1.261       .  A
O415       Cr967   2.007       .  S
O415        C416   1.267       .  A
C416        O417   1.264       .  A
C416        C493   1.448       .  S
O417       Cr968   2.005       .  S
O418       Cr424   1.969       .  S
O418        C419   1.258       .  A
C419        O420   1.271       .  A
C419        C472   1.445       .  S
O420       Cr425   2.027       .  S
O421       Cr425   2.002       .  S
O421        C422   1.258       .  A
C422        C457   1.463       .  S
Cr423       O959   2.007   1_455  S
Cr423       O426   1.784       .  S
Cr424       O961   2.005   1_455  S
Cr424       O426   1.786       .  S
Cr425       O426   1.785       .  S
O427       Cr445   1.998       .  S
O427        C435   1.267       .  A
O428       Cr445   2.011       .  S
O428        C429   1.263       .  A
C429        O430   1.262       .  A
C429        C489   1.448       .  S
O430       Cr446   1.995       .  S
O431       Cr446   2.010       .  S
O431        C432   1.261       .  A
C432        O433   1.256       .  A
C432        C473   1.450       .  S
O433       Cr447   1.985       .  S
O434       Cr447   2.034       .  S
O434        C435   1.275       .  A
C435        C449   1.465       .  S
O436       Cr445   2.020       .  S
O436        C444   1.262       .  A
O437       Cr445   2.015       .  S
O437        C438   1.270       .  A
C438        O439   1.264       .  A
C438        C477   1.455       .  S
O439       Cr446   2.007       .  S
O440        C441   1.258       .  A
C441        O442   1.271       .  A
C441        C485   1.442       .  S
O443       Cr447   2.001       .  S
O443        C444   1.258       .  A
C444        C453   1.465       .  S
Cr445       O448   1.784       .  S
Cr446       O448   1.787       .  S
Cr447       O448   1.787       .  S
C449        C450   1.224       .  T
C450        C451   1.441       .  S
C451        C452   1.224       .  T
C453        C454   1.223       .  T
C455        C456   1.223       .  T
C457        C458   1.222       .  T
C458       C1003   1.439   1_454  S
C459        C460   1.222       .  T
C459       C1002   1.439   1_556  S
C461        C462   1.223       .  T
C462        C463   1.441       .  S
C463        C464   1.223       .  T
C465        C466   1.214       .  T
C466       C1011   1.426   1_455  S
C467        C468   1.214       .  T
C467       C1010   1.426       .  S
C469        C470   1.212       .  T
C470       C1015   1.423       .  S
C471        C472   1.212       .  T
C471       C1014   1.422       .  S
C473        C474   1.215       .  T
C475        C476   1.214       .  T
C477        C478   1.218       .  T
C479        C480   1.218   1_545  T
C481        C482   1.223       .  T
C482        C483   1.440       .  S
C483        C484   1.223       .  T
C485        C486   1.211       .  T
C486        C487   1.420       .  S
C487        C488   1.211       .  T
C489        C490   1.214       .  T
C490        C491   1.425       .  S
C491        C492   1.214       .  T
C493        C494   1.214       .  T
C494        C495   1.426       .  S
C495        C496   1.214       .  T
C497        C498   1.213       .  T
C498        C499   1.425       .  S
C499        C500   1.214       .  T
C501        C502   1.220       .  T
C502        C503   1.436       .  S
C503        C504   1.220       .  T
C505        C506   1.214       .  T
C506        C507   1.425       .  S
C507        C508   1.214       .  T
C509        C510   1.214       .  T
C510        C511   1.426       .  S
C511        C512   1.214       .  T
C513        C514   1.212       .  T
C514        C515   1.422       .  S
C515        C516   1.212       .  T
C517        C518   1.212       .  T
C518        C519   1.423       .  S
C519        C520   1.212       .  T
C521        C522   1.222       .  T
C522        C795   1.438   1_565  S
C523        C524   1.221       .  T
C523        C794   1.438   1_455  S
C525        C526   1.222       .  T
C526        C527   1.438       .  S
C527        C528   1.222       .  T
C529        C530   1.213       .  T
C531        C532   1.213       .  T
C533        C534   1.214   1_565  T
C535        C536   1.214       .  T
C537        C538   1.215   1_455  T
C538       C1083   1.426       .  S
C539        C540   1.214       .  T
C539       C1082   1.426       .  S
C541        C542   1.212       .  T
C542       C1087   1.423       .  S
C543        C544   1.213       .  T
C543       C1086   1.423       .  S
O545       Cr563   2.037       .  S
O545        C553   1.275       .  A
O546       Cr563   1.979       .  S
O546        C547   1.256       .  A
C547        O548   1.263       .  A
C547        C801   1.447       .  S
O548       Cr564   2.013       .  S
O549       Cr564   1.993       .  S
O549        C550   1.261       .  A
C550        O551   1.265       .  A
C550        C809   1.450       .  S
O551       Cr565   2.017       .  S
O552       Cr565   1.992       .  S
O552        C553   1.266       .  A
C553        C800   1.462       .  S
O554       Cr563   1.998       .  S
O554        C562   1.258       .  A
O555       Cr835   2.030       .  S
O555        C556   1.271       .  A
C556        O557   1.257       .  A
C556        C813   1.446       .  S
O557       Cr836   1.968       .  S
O558        C559   1.265       .  A
C559        O560   1.267       .  A
C559        C808   1.448       .  S
O561       Cr565   2.022       .  S
O561        C562   1.262       .  A
C562        C796   1.462       .  S
Cr563       O827   2.030   1_545  S
Cr563       O566   1.782       .  S
Cr564       O829   1.968   1_545  S
Cr564       O566   1.783       .  S
Cr565       O566   1.782       .  S
O567       Cr585   1.990       .  S
O567        C575   1.266       .  A
O568       Cr585   2.013       .  S
O568        C569   1.263       .  A
C569        O570   1.262       .  A
C569        C780   1.448       .  S
O570       Cr586   1.995       .  S
O571       Cr586   2.005       .  S
O571        C572   1.260       .  A
C572        O573   1.257       .  A
C572        C788   1.446       .  S
O573       Cr587   1.984       .  S
O574       Cr587   2.038       .  S
O574        C575   1.276       .  A
C575        C797   1.462       .  S
O576       Cr585   2.019       .  S
O576        C584   1.261       .  A
O577       Cr585   2.003       .  S
O577        C578   1.267       .  A
C578        O579   1.264       .  A
C578        C792   1.444       .  S
O579       Cr586   2.002       .  S
O580       Cr586   1.969       .  S
O580        C581   1.258       .  A
C581        O582   1.272       .  A
C581        C784   1.448       .  S
O582       Cr587   2.033       .  S
O583       Cr587   1.997       .  S
O583        C584   1.257       .  A
C584        C773   1.460       .  S
Cr585       O588   1.783       .  S
Cr586       O588   1.784       .  S
Cr587       O588   1.783       .  S
O589       Cr607   1.992       .  S
O589        C597   1.266       .  A
O590       Cr607   2.008       .  S
O590        C591   1.262       .  A
C591        O592   1.261       .  A
C591        C760   1.443       .  S
O592       Cr608   1.991       .  S
O593       Cr608   2.009       .  S
O593        C594   1.261       .  A
C594        O595   1.257       .  A
C594        C768   1.449       .  S
O595       Cr609   1.985       .  S
O596       Cr609   2.040       .  S
O596        C597   1.276       .  A
C597        C753   1.464       .  S
O598       Cr607   2.016       .  S
O598        C606   1.260       .  A
O599       Cr607   2.006       .  S
O599        C600   1.268       .  A
C600        O601   1.264       .  A
C600        C769   1.446       .  S
O601       Cr608   2.005       .  S
O602       Cr608   1.968       .  S
O602        C603   1.258       .  A
C603        O604   1.272       .  A
C603        C764   1.448       .  S
O604       Cr609   2.032       .  S
O605       Cr609   2.000       .  S
O605        C606   1.257       .  A
C606        C776   1.460       .  S
Cr607       O610   1.784       .  S
Cr608       O610   1.785       .  S
Cr609       O610   1.783       .  S
O611       Cr629   2.040       .  S
O611        C619   1.276       .  A
O612       Cr629   1.979       .  S
O612        C613   1.256       .  A
C613        O614   1.262       .  A
C613        C741   1.446       .  S
O614       Cr630   2.011       .  S
O615       Cr630   1.999       .  S
O615        C616   1.262       .  A
C616        O617   1.265       .  A
C616        C752   1.456       .  S
O617       Cr631   2.020       .  S
O618       Cr631   1.994       .  S
O618        C619   1.267       .  A
C619        C756   1.465       .  S
O620       Cr629   1.997       .  S
O620        C628   1.257       .  A
O621        C622   1.271       .  A
C622        O623   1.258       .  A
C622        C748   1.449       .  S
O624       Cr902   2.006   1_545  S
O624        C625   1.265       .  A
C625        O626   1.268       .  A
C625        C740   1.448       .  S
O626       Cr903   2.005   1_545  S
O627       Cr631   2.023       .  S
O627        C628   1.262       .  A
C628        C793   1.462       .  S
Cr629       O632   1.785       .  S
Cr630       O896   2.006       .  S
Cr630       O632   1.785       .  S
Cr631       O898   2.005       .  S
Cr631       O632   1.783       .  S
O633       Cr651   1.994       .  S
O633        C641   1.268       .  A
O634       Cr651   2.009       .  S
O634        C635   1.261       .  A
C635        O636   1.261       .  A
C635        C781   1.449       .  S
O636       Cr652   1.998       .  S
O637       Cr652   2.005       .  S
O637        C638   1.260       .  A
C638        O639   1.256       .  A
C638        C816   1.447       .  S
O639       Cr653   1.981       .  S
O640       Cr653   2.040       .  S
O640        C641   1.278       .  A
C641        C736   1.465       .  S
O642       Cr651   2.021       .  S
O642        C650   1.260       .  A
O643       Cr651   2.006       .  S
O643        C644   1.270       .  A
C644        O645   1.266       .  A
C644        C812   1.448       .  S
O645       Cr652   2.006       .  S
O646        C647   1.258       .  A
C647        O648   1.271       .  A
C647        C777   1.449       .  S
O649       Cr653   1.998       .  S
O649        C650   1.255       .  A
C650        C732   1.463       .  S
Cr651       O654   1.787       .  S
Cr652       O654   1.787       .  S
Cr653       O654   1.786       .  S
O655       Cr673   1.995       .  S
O655        C663   1.266       .  A
O656       Cr673   2.015       .  S
O656        C657   1.264       .  A
C657        O658   1.261       .  A
C657        C805   1.449       .  S
O658       Cr674   1.993       .  S
O659       Cr674   2.005       .  S
O659        C660   1.260       .  A
C660        O661   1.257       .  A
C660        C789   1.446       .  S
O661       Cr675   1.986       .  S
O662       Cr675   2.036       .  S
O662        C663   1.275       .  A
C663        C733   1.465       .  S
O664       Cr673   2.022       .  S
O664        C672   1.262       .  A
O665       Cr945   2.003   1_545  S
O665        C666   1.267       .  A
C666        O667   1.264       .  A
C666        C785   1.444       .  S
O667       Cr946   2.002   1_545  S
O668       Cr674   1.969       .  S
O668        C669   1.258       .  A
C669        O670   1.271       .  A
C669        C804   1.446       .  S
O670       Cr675   2.029       .  S
O671       Cr675   2.001       .  S
O671        C672   1.258       .  A
C672        C728   1.465       .  S
Cr673       O937   2.003       .  S
Cr673       O676   1.784       .  S
Cr674       O939   2.002       .  S
Cr674       O676   1.786       .  S
Cr675       O676   1.785       .  S
O677       Cr695   1.996       .  S
O677        C685   1.267       .  A
O678       Cr695   2.013       .  S
O678        C679   1.264       .  A
C679        O680   1.262       .  A
C679        C737   1.449       .  S
O680       Cr696   1.995       .  S
O681       Cr696   2.006       .  S
O681        C682   1.261       .  A
C682        O683   1.258       .  A
C682        C772   1.449       .  S
O683       Cr697   1.988       .  S
O684       Cr697   2.037       .  S
O684        C685   1.275       .  A
C685        C724   1.465       .  S
O686       Cr695   2.018       .  S
O686        C694   1.261       .  A
O687        C688   1.267       .  A
C688        O689   1.264       .  A
C688        C765   1.448       .  S
O690       Cr696   1.969       .  S
O690        C691   1.258       .  A
C691        O692   1.271       .  A
C691        C744   1.445       .  S
O692       Cr697   2.027       .  S
O693       Cr697   2.002       .  S
O693        C694   1.258       .  A
C694        C729   1.463       .  S
Cr695       O698   1.784       .  S
Cr696       O698   1.786       .  S
Cr697       O698   1.785       .  S
O699       Cr717   1.998       .  S
O699        C707   1.267       .  A
O700       Cr717   2.011       .  S
O700        C701   1.263       .  A
C701        O702   1.262       .  A
C701        C761   1.448       .  S
O702       Cr718   1.996       .  S
O703       Cr718   2.010       .  S
O703        C704   1.261       .  A
C704        O705   1.256       .  A
C704        C745   1.450       .  S
O705       Cr719   1.985       .  S
O706       Cr719   2.034       .  S
O706        C707   1.275       .  A
C707        C721   1.465       .  S
O708       Cr717   2.021       .  S
O708        C716   1.262       .  A
O709       Cr717   2.015       .  S
O709        C710   1.270       .  A
C710        O711   1.264       .  A
C710        C749   1.455       .  S
O711       Cr718   2.007       .  S
O712       Cr990   1.966       .  S
O712        C713   1.258       .  A
C713        O714   1.271       .  A
C713        C757   1.442       .  S
O714       Cr991   2.026       .  S
O715       Cr719   2.001   1_565  S
O715        C716   1.258   1_565  A
C716        C725   1.465       .  S
Cr717       O720   1.784       .  S
Cr718       O984   1.966   1_545  S
Cr718       O720   1.787       .  S
Cr719       O986   2.026   1_545  S
Cr719       O720   1.787       .  S
C721        C722   1.224       .  T
C722        C723   1.441       .  S
C723        C724   1.224       .  T
C725        C726   1.223       .  T
C726        C999   1.441   1_544  S
C727        C728   1.223       .  T
C727        C998   1.441   1_556  S
C729        C730   1.222       .  T
C731        C732   1.222       .  T
C733        C734   1.223       .  T
C734        C735   1.441       .  S
C735        C736   1.223       .  T
C737        C738   1.214       .  T
C739        C740   1.214       .  T
C741        C742   1.212   1_655  T
C743        C744   1.212       .  T
C745        C746   1.215   1_545  T
C746       C1019   1.426       .  S
C747        C748   1.214       .  T
C747       C1018   1.426       .  S
C749        C750   1.218       .  T
C750       C1023   1.433       .  S
C751        C752   1.218       .  T
C751       C1022   1.433       .  S
C753        C754   1.223       .  T
C754        C755   1.440       .  S
C755        C756   1.223       .  T
C757        C758   1.211       .  T
C758        C759   1.420       .  S
C759        C760   1.211       .  T
C761        C762   1.214       .  T
C762        C763   1.425       .  S
C763        C764   1.214       .  T
C765        C766   1.214       .  T
C766        C767   1.426       .  S
C767        C768   1.214       .  T
C769        C770   1.213       .  T
C770        C771   1.425       .  S
C771        C772   1.214       .  T
C773        C774   1.221       .  T
C774        C775   1.436       .  S
C775        C776   1.221       .  T
C777        C778   1.214       .  T
C778        C779   1.426       .  S
C779        C780   1.214       .  T
C781        C782   1.214       .  T
C782        C783   1.426       .  S
C783        C784   1.214       .  T
C785        C786   1.212       .  T
C786        C787   1.422       .  S
C787        C788   1.212       .  T
C789        C790   1.212       .  T
C790        C791   1.423       .  S
C791        C792   1.212       .  T
C793        C794   1.222       .  T
C795        C796   1.222       .  T
C797        C798   1.222       .  T
C798        C799   1.438       .  S
C799        C800   1.222       .  T
C801        C802   1.213   1_545  T
C802       C1075   1.424       .  S
C803        C804   1.213       .  T
C803       C1074   1.424       .  S
C805        C806   1.214       .  T
C806       C1079   1.425       .  S
C807        C808   1.214       .  T
C807       C1078   1.425       .  S
C809        C810   1.215       .  T
C811        C812   1.214       .  T
C813        C814   1.212       .  T
C815        C816   1.213   1_455  T
O817       Cr835   2.037       .  S
O817        C825   1.275       .  A
O818       Cr835   1.979       .  S
O818        C819   1.256       .  A
C819        O820   1.263       .  A
C819       C1073   1.447       .  S
O820       Cr836   2.013       .  S
O821       Cr836   1.993       .  S
O821        C822   1.261       .  A
C822        O823   1.264       .  A
C822       C1081   1.450       .  S
O823       Cr837   2.017       .  S
O824       Cr837   1.992       .  S
O824        C825   1.266       .  A
C825       C1072   1.462       .  S
O826       Cr835   1.998       .  S
O826        C834   1.258       .  A
O827        C828   1.271       .  A
C828        O829   1.257       .  A
C828       C1085   1.446       .  S
O830        C831   1.265       .  A
C831        O832   1.267       .  A
C831       C1080   1.448       .  S
O833       Cr837   2.022       .  S
O833        C834   1.262       .  A
C834       C1068   1.462       .  S
Cr835       O838   1.782       .  S
Cr836       O838   1.783       .  S
Cr837       O838   1.782       .  S
O839       Cr857   1.990       .  S
O839        C847   1.266       .  A
O840       Cr857   2.013       .  S
O840        C841   1.263       .  A
C841        O842   1.262       .  A
C841       C1052   1.448       .  S
O842       Cr858   1.995       .  S
O843       Cr858   2.005       .  S
O843        C844   1.260       .  A
C844        O845   1.257       .  A
C844       C1060   1.446       .  S
O845       Cr859   1.983       .  S
O846       Cr859   2.038       .  S
O846        C847   1.276       .  A
C847       C1069   1.462       .  S
O848       Cr857   2.019       .  S
O848        C856   1.261       .  A
O849       Cr857   2.003       .  S
O849        C850   1.267       .  A
C850        O851   1.264       .  A
C850       C1064   1.445       .  S
O851       Cr858   2.002       .  S
O852       Cr858   1.969       .  S
O852        C853   1.258       .  A
C853        O854   1.272       .  A
C853       C1056   1.449       .  S
O854       Cr859   2.033       .  S
O855       Cr859   1.997       .  S
O855        C856   1.257       .  A
C856       C1045   1.460       .  S
Cr857       O860   1.783       .  S
Cr858       O860   1.784       .  S
Cr859       O860   1.783       .  S
O861       Cr879   1.992       .  S
O861        C869   1.266       .  A
O862       Cr879   2.008       .  S
O862        C863   1.262       .  A
C863        O864   1.261       .  A
C863       C1032   1.443       .  S
O864       Cr880   1.991       .  S
O865       Cr880   2.009       .  S
O865        C866   1.261       .  A
C866        O867   1.257       .  A
C866       C1040   1.449       .  S
O867       Cr881   1.985       .  S
O868       Cr881   2.040       .  S
O868        C869   1.276       .  A
C869       C1025   1.464       .  S
O870       Cr879   2.016       .  S
O870        C878   1.260       .  A
O871       Cr879   2.006       .  S
O871        C872   1.268       .  A
C872        O873   1.264       .  A
C872       C1041   1.447       .  S
O873       Cr880   2.005       .  S
O874       Cr880   1.968       .  S
O874        C875   1.258       .  A
C875        O876   1.272       .  A
C875       C1036   1.448       .  S
O876       Cr881   2.032       .  S
O877       Cr881   2.000       .  S
O877        C878   1.257       .  A
C878       C1048   1.460       .  S
Cr879       O882   1.784       .  S
Cr880       O882   1.785       .  S
Cr881       O882   1.783       .  S
O883       Cr901   2.040       .  S
O883        C891   1.276       .  A
O884       Cr901   1.979       .  S
O884        C885   1.256       .  A
C885        O886   1.262       .  A
C885       C1013   1.446       .  S
O886       Cr902   2.011       .  S
O887       Cr902   1.999       .  S
O887        C888   1.263       .  A
C888        O889   1.265       .  A
C888       C1024   1.456       .  S
O889       Cr903   2.020       .  S
O890       Cr903   1.994       .  S
O890        C891   1.267       .  A
C891       C1028   1.464       .  S
O892       Cr901   1.997       .  S
O892        C900   1.257       .  A
O893        C894   1.271       .  A
C894        O895   1.258       .  A
C894       C1020   1.449       .  S
O896        C897   1.265       .  A
C897        O898   1.268       .  A
C897       C1012   1.448       .  S
O899       Cr903   2.023       .  S
O899        C900   1.262       .  A
C900       C1065   1.462       .  S
Cr901       O904   1.785       .  S
Cr902       O904   1.785       .  S
Cr903       O904   1.783       .  S
O905       Cr923   1.994       .  S
O905        C913   1.268       .  A
O906       Cr923   2.009       .  S
O906        C907   1.261       .  A
C907        O908   1.261       .  A
C907       C1053   1.449       .  S
O908       Cr924   1.998       .  S
O909       Cr924   2.004       .  S
O909        C910   1.260       .  A
C910        O911   1.256       .  A
C910       C1088   1.447       .  S
O911       Cr925   1.981       .  S
O912       Cr925   2.040       .  S
O912        C913   1.278       .  A
C913       C1008   1.465       .  S
O914       Cr923   2.021       .  S
O914        C922   1.260       .  A
O915       Cr923   2.006       .  S
O915        C916   1.270       .  A
C916        O917   1.266       .  A
C916       C1084   1.448       .  S
O917       Cr924   2.005       .  S
O918        C919   1.258       .  A
C919        O920   1.271       .  A
C919       C1049   1.449       .  S
O921       Cr925   1.998       .  S
O921        C922   1.255       .  A
C922       C1004   1.463       .  S
Cr923       O926   1.787       .  S
Cr924       O926   1.787       .  S
Cr925       O926   1.786       .  S
O927       Cr945   1.995       .  S
O927        C935   1.266       .  A
O928       Cr945   2.015       .  S
O928        C929   1.264       .  A
C929        O930   1.261       .  A
C929       C1077   1.449       .  S
O930       Cr946   1.993       .  S
O931       Cr946   2.005       .  S
O931        C932   1.260       .  A
C932        O933   1.257       .  A
C932       C1061   1.446       .  S
O933       Cr947   1.986       .  S
O934       Cr947   2.036       .  S
O934        C935   1.275       .  A
C935       C1005   1.465       .  S
O936       Cr945   2.022       .  S
O936        C944   1.262       .  A
O937        C938   1.267       .  A
C938        O939   1.264       .  A
C938       C1057   1.444       .  S
O940       Cr946   1.969       .  S
O940        C941   1.258       .  A
C941        O942   1.271       .  A
C941       C1076   1.446       .  S
O942       Cr947   2.029       .  S
O943       Cr947   2.001       .  S
O943        C944   1.258       .  A
C944       C1000   1.465       .  S
Cr945       O948   1.784       .  S
Cr946       O948   1.786       .  S
Cr947       O948   1.785       .  S
O949       Cr967   1.996       .  S
O949        C957   1.267       .  A
O950       Cr967   2.013       .  S
O950        C951   1.264       .  A
C951        O952   1.262       .  A
C951       C1009   1.449       .  S
O952       Cr968   1.995       .  S
O953       Cr968   2.006       .  S
O953        C954   1.261       .  A
C954        O955   1.258       .  A
C954       C1044   1.449       .  S
O955       Cr969   1.988       .  S
O956       Cr969   2.036       .  S
O956        C957   1.275       .  A
C957        C996   1.465       .  S
O958       Cr967   2.018       .  S
O958        C966   1.261       .  A
O959        C960   1.267       .  A
C960        O961   1.264       .  A
C960       C1037   1.448       .  S
O962       Cr968   1.969       .  S
O962        C963   1.258       .  A
C963        O964   1.271       .  A
C963       C1016   1.445       .  S
O964       Cr969   2.027       .  S
O965       Cr969   2.002       .  S
O965        C966   1.258       .  A
C966       C1001   1.463       .  S
Cr967       O970   1.784       .  S
Cr968       O970   1.786       .  S
Cr969       O970   1.785       .  S
O971       Cr989   1.998       .  S
O971        C979   1.267       .  A
O972       Cr989   2.011       .  S
O972        C973   1.263       .  A
C973        O974   1.262       .  A
C973       C1033   1.448       .  S
O974       Cr990   1.995       .  S
O975       Cr990   2.010       .  S
O975        C976   1.261       .  A
C976        O977   1.256       .  A
C976       C1017   1.450       .  S
O977       Cr991   1.985       .  S
O978       Cr991   2.034       .  S
O978        C979   1.275       .  A
C979        C993   1.465       .  S
O980       Cr989   2.020       .  S
O980        C988   1.262       .  A
O981       Cr989   2.015       .  S
O981        C982   1.270       .  A
C982        O983   1.264       .  A
C982       C1021   1.455       .  S
O983       Cr990   2.007       .  S
O984        C985   1.258       .  A
C985        O986   1.271       .  A
C985       C1029   1.442       .  S
O987       Cr991   2.001       .  S
O987        C988   1.258       .  A
C988        C997   1.465       .  S
Cr989       O992   1.784       .  S
Cr990       O992   1.787       .  S
Cr991       O992   1.787       .  S
C993        C994   1.224       .  T
C994        C995   1.441       .  S
C995        C996   1.224       .  T
C997        C998   1.223       .  T
C999       C1000   1.223       .  T
C1001      C1002   1.222       .  T
C1003      C1004   1.222       .  T
C1005      C1006   1.223       .  T
C1006      C1007   1.441       .  S
C1007      C1008   1.223       .  T
C1009      C1010   1.214       .  T
C1011      C1012   1.214       .  T
C1013      C1014   1.212   1_655  T
C1015      C1016   1.212       .  T
C1017      C1018   1.215       .  T
C1019      C1020   1.214       .  T
C1021      C1022   1.218       .  T
C1023      C1024   1.218   1_545  T
C1025      C1026   1.223       .  T
C1026      C1027   1.440       .  S
C1027      C1028   1.223       .  T
C1029      C1030   1.211       .  T
C1030      C1031   1.420       .  S
C1031      C1032   1.211       .  T
C1033      C1034   1.214       .  T
C1034      C1035   1.425       .  S
C1035      C1036   1.214       .  T
C1037      C1038   1.214       .  T
C1038      C1039   1.426       .  S
C1039      C1040   1.214       .  T
C1041      C1042   1.214       .  T
C1042      C1043   1.425       .  S
C1043      C1044   1.214       .  T
C1045      C1046   1.220       .  T
C1046      C1047   1.436       .  S
C1047      C1048   1.220       .  T
C1049      C1050   1.214       .  T
C1050      C1051   1.425       .  S
C1051      C1052   1.214       .  T
C1053      C1054   1.214       .  T
C1054      C1055   1.426       .  S
C1055      C1056   1.214       .  T
C1057      C1058   1.212       .  T
C1058      C1059   1.422       .  S
C1059      C1060   1.212       .  T
C1061      C1062   1.212       .  T
C1062      C1063   1.423       .  S
C1063      C1064   1.212       .  T
C1065      C1066   1.222       .  T
C1067      C1068   1.221       .  T
C1069      C1070   1.222       .  T
C1070      C1071   1.438       .  S
C1071      C1072   1.222       .  T
C1073      C1074   1.213       .  T
C1075      C1076   1.213       .  T
C1077      C1078   1.214   1_565  T
C1079      C1080   1.214       .  T
C1081      C1082   1.215       .  T
C1083      C1084   1.214       .  T
C1085      C1086   1.212       .  T
C1087      C1088   1.213   1_455  T
