geometry optimzed in LAMMPS
_audit_creation_date              2020-12-01 
_audit_creation_method            'lammps2cif' 
_symmetry_space_group_name_H-M    'P1' 
_symmetry_Int_Tables_number       1 
_symmetry_cell_setting            triclinic 
loop_ 
_symmetry_equiv_pos_as_xyz 
  x,y,z 
_cell_length_a                    51.55480492 
_cell_length_b                    51.20557488819087 
_cell_length_c                    28.305644584517783 
_cell_angle_alpha                 89.742210064722 
_cell_angle_beta                  89.91731387270977 
_cell_angle_gamma                 89.96433885815047 
loop_ 
_atom_site_label 
_atom_site_type_symbol 
_atom_site_fract_x 
_atom_site_fract_y 
_atom_site_fract_z 
_atom_site_charge 
Fe1        Fe  0.42283717  0.89637371  0.82161515     1.65800
Fe2        Fe  0.40079738  0.83826621  0.86456287     1.73200
Fe3        Fe  0.45412086  0.83952910  0.79483799     1.54400
O4          O  0.44104272  0.85365587  0.73073683    -0.81400
O5          O  0.42983837  0.81431541  0.89226544    -0.79700
O6          O  0.43049065  0.89491005  0.74956503    -0.83900
O7          O  0.46148297  0.90248939  0.83587364    -0.78800
O8          O  0.43307898  0.80520146  0.78466500    -0.80500
O9          O  0.40569930  0.86225310  0.92166868    -0.83300
C10         C  0.48110261  0.89294098  0.81529010     0.97500
C11         C  0.43500217  0.87699662  0.71949680     1.04900
O12         O  0.42583604  0.85821570  0.82714359    -1.12300
O13         O  0.36860156  0.85959051  0.84209975    -0.74700
O14         O  0.38352129  0.89565981  0.80716070    -0.78200
O15         O  0.48077991  0.87030309  0.79718516    -0.78900
C16         C  0.36496932  0.88102017  0.82026919     0.96400
O17         O  0.41480560  0.90188233  0.89281119    -0.76800
O18         O  0.39320737  0.81224839  0.81109350    -0.82000
C19         C  0.45447219  0.81254921  0.88977972     0.99000
C20         C  0.40954430  0.79834230  0.78932568     1.06500
O21         O  0.46789140  0.82436852  0.85838842    -0.77700
C22         C  0.40927268  0.88659229  0.92682273     1.03200
Fe23       Fe  0.41494822  0.61789941  0.19907786     1.65800
Fe24       Fe  0.39836761  0.67637711  0.15620480     1.73200
Fe25       Fe  0.45079384  0.67146516  0.23063485     1.54400
O26         O  0.43914818  0.65230835  0.29328818    -0.81400
O27         O  0.42952604  0.69152083  0.11981450    -0.79700
O28         O  0.41097622  0.62117222  0.27068611    -0.83900
O29         O  0.45295976  0.60706237  0.20798026    -0.78800
O30         O  0.42950936  0.70354825  0.25217438    -0.80500
O31         O  0.39466202  0.64765677  0.10556808    -0.83300
C32         C  0.47487159  0.61737794  0.21513260     0.97500
C33         C  0.42255391  0.63431684  0.30233056     1.04900
O34         O  0.42182526  0.65540669  0.19527312    -1.12300
O35         O  0.36556289  0.66319584  0.19073639    -0.74700
O36         O  0.37485090  0.62097811  0.19261270    -0.78200
O37         O  0.47780097  0.64193414  0.21750587    -0.78900
C38         C  0.35878100  0.63960969  0.19603091     0.96400
O39         O  0.41855667  0.61332732  0.12693445    -0.76800
O40         O  0.39746426  0.70775020  0.20045989    -0.82000
C41         C  0.45278396  0.69760464  0.13007772     0.99000
C42         C  0.40991741  0.71549057  0.23601982     1.04900
O43         O  0.46344616  0.69210254  0.16985273    -0.77700
C44         C  0.40471343  0.62554284  0.09707924     1.03200
Fe45       Fe  0.37296591  0.57212361  0.70799197     1.65800
Fe46       Fe  0.31600828  0.59366338  0.66270475     1.73200
Fe47       Fe  0.31659604  0.54018097  0.73250877     1.54400
O48         O  0.34785982  0.51409558  0.73155937    -0.81400
O49         O  0.29018951  0.60126071  0.71619342    -0.79700
O50         O  0.37910124  0.53376268  0.69081339    -0.83900
O51         O  0.37093215  0.56261169  0.77936166    -0.78800
O52         O  0.30272854  0.52600593  0.66887013    -0.80500
O53         O  0.33676461  0.62587562  0.68615861    -0.83300
C54         C  0.35242969  0.55977153  0.80876215     0.97500
C55         C  0.37045894  0.51431856  0.71362485     1.04900
O56         O  0.33534624  0.56864718  0.70064701    -1.12300
O57         O  0.34032964  0.58870824  0.60588209    -0.74700
O58         O  0.37945284  0.58249809  0.63776203    -0.78200
O59         O  0.32930233  0.55415386  0.79674754    -0.78900
C60         C  0.36481607  0.58699595  0.60256379     0.96400
O61         O  0.37098053  0.61095716  0.72611582    -0.76800
O62         O  0.29252434  0.56434424  0.63506694    -0.82000
C63         C  0.27592629  0.58491355  0.73735401     0.99000
C64         C  0.29081978  0.53953308  0.63780520     1.04900
O65         O  0.28204301  0.56097749  0.74091350    -0.77700
C66         C  0.35665831  0.62947327  0.71176190     1.03200
Fe67       Fe  0.09793310  0.58761636  0.33093523     1.65800
Fe68       Fe  0.15488936  0.60101587  0.37898266     1.73200
Fe69       Fe  0.14943420  0.54926131  0.30385094     1.54400
O70         O  0.11931317  0.52357174  0.32067722    -0.81400
O71         O  0.18757385  0.60044104  0.33664550    -0.79700
O72         O  0.08604836  0.55057222  0.31367145    -0.83900
O73         O  0.10475303  0.59484586  0.26135483    -0.78800
O74         O  0.17006962  0.53645036  0.36386863    -0.80500
O75         O  0.14418739  0.63440986  0.34269210    -0.83300
C76         C  0.11576491  0.58052060  0.23074740     0.97500
C77         C  0.09543962  0.52778108  0.31298128     1.04900
O78         O  0.13438262  0.57877500  0.33815578    -1.12300
O79         O  0.12420670  0.60519120  0.42678661    -0.74700
O80         O  0.09126856  0.58064735  0.40133080    -0.78200
O81         O  0.13024576  0.56092565  0.24115485    -0.78900
C82         C  0.10213631  0.59441067  0.43279602     0.96400
O83         O  0.10201889  0.62716900  0.34486136    -0.76800
O84         O  0.16750437  0.56901607  0.41674047    -0.82000
C85         C  0.19459622  0.58866713  0.29948336     0.99000
C86         C  0.17446028  0.54614712  0.40472533     1.04900
O87         O  0.18154191  0.57026296  0.28138910    -0.77700
C88         C  0.12106719  0.64242221  0.33937513     1.03200
Fe89       Fe  0.06159017  0.90283228  0.20293016     1.65800
Fe90       Fe  0.07815667  0.84614639  0.15572431     1.73200
Fe91       Fe  0.02582248  0.84884957  0.22938775     1.54400
O92         O  0.03528413  0.86851219  0.29266169    -0.81400
O93         O  0.04748052  0.83305542  0.11646115    -0.79700
O94         O  0.06715578  0.89651195  0.27291179    -0.83900
O95         O  0.02370475  0.91273475  0.21661388    -0.78800
O96         O  0.04844950  0.81813307  0.25316300    -0.80500
O97         O  0.08247115  0.87712878  0.10889293    -0.83300
C98         C  0.00165911  0.90195309  0.21730625     0.97500
C99         C  0.05383092  0.88406110  0.30332192     1.04900
O100        O  0.05467682  0.86572724  0.19581459    -1.12300
O101        O  0.11018446  0.85776038  0.19354397    -0.74700
O102        O  0.10151188  0.90006927  0.19296724    -0.78200
O103        O  0.99883420  0.87758151  0.21133131    -0.78900
C104        C  0.11729542  0.88126260  0.19770911     0.96400
O105        O  0.05653170  0.90957060  0.13183420    -0.76800
O106        O  0.07794547  0.81287861  0.19664759    -0.82000
C107        C  0.02522335  0.82437862  0.12777341     0.99000
C108        C  0.06698215  0.80560026  0.23444975     1.04900
O109        O  0.01512938  0.82734645  0.16883422    -0.77700
C110        C  0.07137811  0.89897031  0.10167334     1.03200
Fe111      Fe  0.05191056  0.62370024  0.82683460     1.65800
Fe112      Fe  0.07435520  0.68255511  0.86344298     1.73200
Fe113      Fe  0.01975725  0.67955262  0.79864717     1.54400
O114        O  0.03255418  0.66525244  0.73478312    -0.81400
O115        O  0.04574456  0.70738787  0.88975420    -0.79700
O116        O  0.04288983  0.62403554  0.75506344    -0.83900
O117        O  0.01382415  0.61772371  0.84473712    -0.78800
O118        O  0.04007702  0.71425538  0.78655459    -0.80500
O119        O  0.07028071  0.66022220  0.92331062    -0.83300
C120        C  0.99443400  0.62550095  0.82126547     0.97500
C121        C  0.03868981  0.64184693  0.72432290     1.04900
O122        O  0.04873761  0.66170928  0.82996897    -1.12300
O123        O  0.10611517  0.66071634  0.84155532    -0.74700
O124        O  0.09047536  0.62464484  0.80853989    -0.78200
O125        O  0.99386796  0.64800942  0.80231587    -0.78900
C126        C  0.10920438  0.63937301  0.81964294     0.96400
O127        O  0.06157165  0.61985649  0.89797325    -0.76800
O128        O  0.08092717  0.70652337  0.80615732    -0.82000
C129        C  0.02101893  0.70837176  0.89012433     0.99000
C130        C  0.06386858  0.72068622  0.78686282     1.04900
O131        O  0.00691191  0.69476805  0.86255029    -0.77700
C132        C  0.06722308  0.63592854  0.93054799     1.03200
Fe133      Fe  0.37823363  0.93555564  0.32702892     1.65800
Fe134      Fe  0.32107532  0.91958710  0.37228640     1.73200
Fe135      Fe  0.32564780  0.97234324  0.29822287     1.54400
O136        O  0.35438401  0.99927087  0.31663514    -0.81400
O137        O  0.28887191  0.91999072  0.32959255    -0.79700
O138        O  0.38871459  0.97335482  0.31363035    -0.83900
O139        O  0.37310158  0.92989263  0.25666351    -0.78800
O140        O  0.30338707  0.98332105  0.35776260    -0.80500
O141        O  0.33308314  0.88711238  0.33534543    -0.83300
C142        C  0.36178828  0.94385980  0.22575705     0.97500
C143        C  0.37863848  0.99582843  0.31198548     1.04900
O144        O  0.34140141  0.94302521  0.33275891    -1.12300
O145        O  0.35112893  0.91503942  0.42049963    -0.74700
O146        O  0.38386866  0.94073644  0.39813881    -0.78200
O147        O  0.34614716  0.96252836  0.23582650    -0.78900
C148        C  0.37307218  0.92565708  0.42786910     0.96400
O149        O  0.37508650  0.89562964  0.33757859    -0.76800
O150        O  0.30724512  0.95064310  0.41069898    -0.82000
C151        C  0.28218056  0.93147609  0.29189557     0.99000
C152        C  0.29905609  0.97311943  0.39849644     1.04900
O153        O  0.29504840  0.95009221  0.27378419    -0.77700
C154        C  0.35647008  0.87988008  0.33204845     1.03200
Fe155      Fe  0.10008458  0.94708671  0.70643559     1.65800
Fe156      Fe  0.15772611  0.92626609  0.66147047     1.73200
Fe157      Fe  0.15628374  0.97978698  0.73096978     1.54400
O158        O  0.12511959  0.00615231  0.72765642    -0.81400
O159        O  0.18410850  0.91888126  0.71446142    -0.79700
O160        O  0.09286387  0.98563852  0.69153135    -0.83900
O161        O  0.10181755  0.95496143  0.77812644    -0.78800
O162        O  0.17122896  0.99377111  0.66724261    -0.80500
O163        O  0.13749718  0.89364466  0.68452044    -0.83300
C164        C  0.11986232  0.95969109  0.80747313     0.97500
C165        C  0.10227845  0.00576216  0.71074710     1.04900
O166        O  0.13787868  0.95105125  0.69939154    -1.12300
O167        O  0.13319887  0.93093468  0.60517044    -0.74700
O168        O  0.09398443  0.93866226  0.63580395    -0.78200
O169        O  0.14268582  0.96657512  0.79544253    -0.78900
C170        C  0.10884606  0.93361674  0.60122038     0.96400
O171        O  0.10218164  0.90773007  0.72199020    -0.76800
O172        O  0.18070287  0.95562500  0.63286329    -0.82000
C173        C  0.19754619  0.93508282  0.73752376     0.99000
C174        C  0.18262559  0.98034657  0.63550268     1.04900
O175        O  0.19071514  0.95880083  0.74202597    -0.77700
C176        C  0.11694851  0.88950013  0.70809288     1.03200
Fe177      Fe  0.60149974  0.43653596  0.33715412     1.65800
Fe178      Fe  0.65974982  0.42227311  0.37909965     1.73200
Fe179      Fe  0.65290897  0.47369045  0.30285705     1.54400
O180        O  0.63223887  0.46147969  0.24288374    -0.81400
O181        O  0.67430034  0.45417937  0.41404500    -0.79700
O182        O  0.60591230  0.42896377  0.26727654    -0.83900
O183        O  0.58961772  0.47370996  0.32036502    -0.78800
O184        O  0.68452385  0.45235914  0.27909532    -0.80500
O185        O  0.63090610  0.41931977  0.43011253    -0.83300
C186        C  0.59927921  0.49628330  0.31678514     0.97500
C187        C  0.61690966  0.44230855  0.23498984     1.04900
O188        O  0.63834354  0.44473288  0.33987896    -1.12300
O189        O  0.64725806  0.38889379  0.34524569    -0.74700
O190        O  0.60535016  0.39688021  0.35146926    -0.78200
O191        O  0.62351448  0.50017317  0.32018521    -0.78900
C192        C  0.62394831  0.38128959  0.34416371     0.96400
O193        O  0.59720734  0.44391597  0.40799459    -0.76800
O194        O  0.69102963  0.42188574  0.33407577    -0.82000
C195        C  0.68104270  0.47690337  0.40048785     0.99000
C196        C  0.69773620  0.43389111  0.29691722     1.04900
O197        O  0.67509899  0.48668504  0.36023975    -0.77700
C198        C  0.60941954  0.43063197  0.43873349     1.03200
Fe199      Fe  0.87705346  0.43915347  0.69878462     1.65800
Fe200      Fe  0.81895470  0.42213890  0.65845256     1.73200
Fe201      Fe  0.82407624  0.47536203  0.73058998     1.54400
O202        O  0.84341031  0.46379348  0.79273742    -0.81400
O203        O  0.80445694  0.45327574  0.62032483    -0.79700
O204        O  0.87358871  0.43452634  0.76987744    -0.83900
O205        O  0.88814545  0.47723123  0.70897562    -0.78800
O206        O  0.79170734  0.45468401  0.75330269    -0.80500
O207        O  0.84781342  0.41747848  0.60827111    -0.83300
C208        C  0.87768205  0.49931323  0.71444709     0.97500
C209        C  0.86058989  0.44632832  0.80149222     1.04900
O210        O  0.83980351  0.44604950  0.69593016    -1.12300
O211        O  0.83205134  0.38979129  0.69542019    -0.74700
O212        O  0.87395809  0.39894045  0.69145573    -0.78200
O213        O  0.85327043  0.50225991  0.71488513    -0.78900
C214        C  0.85561706  0.38295286  0.69848243     0.96400
O215        O  0.88108033  0.44322262  0.62673973    -0.76800
O216        O  0.78710843  0.42229833  0.70219645    -0.82000
C217        C  0.79819864  0.47661754  0.63085802     0.99000
C218        C  0.77919210  0.43546665  0.73698220     1.04900
O219        O  0.80356136  0.48741177  0.67039006    -0.77700
C220        C  0.86937929  0.42818705  0.59834013     1.03200
Fe221      Fe  0.92243399  0.40111802  0.20659569     1.65800
Fe222      Fe  0.90085308  0.34275084  0.16583323     1.73200
Fe223      Fe  0.95498822  0.34492455  0.23176577     1.54400
O224        O  0.98034757  0.37671302  0.22968073    -0.81400
O225        O  0.89476347  0.31720265  0.22087283    -0.79700
O226        O  0.96053734  0.40779213  0.18872959    -0.83900
O227        O  0.93188268  0.39957912  0.27777599    -0.78800
O228        O  0.96837703  0.33101690  0.16737400    -0.80500
O229        O  0.86902002  0.36332042  0.19043268    -0.83300
C230        C  0.93542702  0.38116682  0.30751331     0.97500
C231        C  0.98006026  0.39930679  0.21106444     1.04900
O232        O  0.92606674  0.36314643  0.20090684    -1.12300
O233        O  0.90406832  0.36666706  0.10791805    -0.74700
O234        O  0.91227252  0.40646551  0.13642124    -0.78200
O235        O  0.94144454  0.35791219  0.29603348    -0.78900
C236        C  0.90651441  0.39115212  0.10283859     0.96400
O237        O  0.88370214  0.39940512  0.22503700    -0.76800
O238        O  0.92993019  0.31952822  0.13673609    -0.82000
C239        C  0.91174129  0.30312953  0.24057269     0.99000
C240        C  0.95465960  0.31879582  0.13716432     1.04900
O241        O  0.93541196  0.30973074  0.24182752    -0.77700
C242        C  0.86538884  0.38422181  0.21345415     1.03200
Fe243      Fe  0.91520162  0.12121176  0.83246716     1.65800
Fe244      Fe  0.89935604  0.17795875  0.88001710     1.73200
Fe245      Fe  0.95065342  0.17484041  0.80360542     1.54400
O246        O  0.97781327  0.14590822  0.81956802    -0.81400
O247        O  0.89836945  0.21078645  0.83746809    -0.79700
O248        O  0.95249853  0.11120964  0.81442348    -0.83900
O249        O  0.90741168  0.12774488  0.76318223    -0.78800
O250        O  0.96254251  0.19646292  0.86283338    -0.80500
O251        O  0.86661590  0.16546866  0.84474056    -0.83300
C252        C  0.92050237  0.13995429  0.73208977     0.97500
C253        C  0.97463439  0.12173662  0.81203120     1.04900
O254        O  0.92229497  0.15829834  0.83904740    -1.12300
O255        O  0.89672902  0.14705268  0.92821745    -0.74700
O256        O  0.92244041  0.11485851  0.90279241    -0.78200
O257        O  0.93957756  0.15506992  0.74162019    -0.78900
C258        C  0.90814067  0.12517287  0.93413479     0.96400
O259        O  0.87577111  0.12337762  0.84693348    -0.76800
O260        O  0.93060015  0.19233571  0.91662658    -0.82000
C261        C  0.90968926  0.21842053  0.80015089     0.99000
C262        C  0.95278056  0.20064277  0.90374002     1.04900
O263        O  0.92826642  0.20599244  0.78139645    -0.77700
C264        C  0.85973517  0.14183857  0.84158072     1.03200
Fe265      Fe  0.60002822  0.08145674  0.71302846     1.65800
Fe266      Fe  0.65556696  0.10007997  0.66312580     1.73200
Fe267      Fe  0.65435991  0.04519955  0.73355172     1.54400
O268        O  0.63726953  0.05464884  0.79888831    -0.81400
O269        O  0.67042486  0.07002496  0.62308421    -0.79700
O270        O  0.60764718  0.08590287  0.78320032    -0.83900
O271        O  0.59039757  0.04325689  0.72593626    -0.78800
O272        O  0.68637603  0.06683677  0.75365066    -0.80500
O273        O  0.62461338  0.10328334  0.61646823    -0.83300
C274        C  0.60088705  0.02097853  0.72711664     0.97500
C275        C  0.62154806  0.07266355  0.81169577     1.04900
O276        O  0.63690158  0.07511602  0.70291360    -1.12300
O277        O  0.64282013  0.13240603  0.70038193    -0.74700
O278        O  0.60144663  0.12159219  0.70476680    -0.78200
O279        O  0.62499242  0.01797059  0.71981386    -0.78900
C280        C  0.61929995  0.13847315  0.70684264     0.96400
O281        O  0.59229759  0.07765228  0.64184549    -0.76800
O282        O  0.68829986  0.10084520  0.70461893    -0.82000
C283        C  0.67768986  0.04670990  0.63151672     0.99000
C284        C  0.69735394  0.08733073  0.73828757     1.04900
O285        O  0.67338561  0.03481786  0.67063598    -0.77700
C286        C  0.60264366  0.09236627  0.61077686     1.03200
Fe287      Fe  0.87847854  0.07564120  0.32948072     1.65800
Fe288      Fe  0.82034772  0.09874179  0.36681794     1.73200
Fe289      Fe  0.82274487  0.04431675  0.30009482     1.54400
O290        O  0.83786442  0.05693299  0.23616947    -0.81400
O291        O  0.79553087  0.07017104  0.39345754    -0.79700
O292        O  0.87856007  0.06631057  0.25844889    -0.83900
O293        O  0.88345592  0.03710996  0.34796338    -0.78800
O294        O  0.78894679  0.06538317  0.28762548    -0.80500
O295        O  0.84249617  0.09441818  0.42635282    -0.83300
C296        C  0.87539666  0.01773017  0.32455785     0.97500
C297        C  0.86146340  0.06237813  0.22682825     1.04900
O298        O  0.84068662  0.07296715  0.33242057    -1.12300
O299        O  0.84233785  0.13032358  0.34462291    -0.74700
O300        O  0.87805172  0.11458656  0.31064724    -0.78200
O301        O  0.85341817  0.01783396  0.30453753    -0.78900
C302        C  0.86345361  0.13344738  0.32225913     0.96400
O303        O  0.88241109  0.08573202  0.39984169    -0.76800
O304        O  0.79658494  0.10600116  0.31023328    -0.82000
C305        C  0.79396013  0.04533448  0.39259858     0.99000
C306        C  0.78270044  0.08929566  0.28956203     1.04900
O307        O  0.80674288  0.03126380  0.36356961    -0.77700
C308        C  0.86669077  0.09175972  0.43262524     1.03200
Fe309      Fe  0.55270051  0.40325086  0.83029595     1.65800
Fe310      Fe  0.57681476  0.34561195  0.87127563     1.73200
Fe311      Fe  0.52289594  0.34566604  0.80468034     1.54400
O312        O  0.49572884  0.37594957  0.80766478    -0.81400
O313        O  0.58465823  0.32048163  0.81672942    -0.79700
O314        O  0.51440162  0.40775354  0.84807764    -0.83900
O315        O  0.54361733  0.40209592  0.75897738    -0.78800
O316        O  0.51004567  0.33025616  0.86880814    -0.80500
O317        O  0.60770965  0.36803023  0.84715303    -0.83300
C318        C  0.54150343  0.38358951  0.72939963     0.97500
C319        C  0.49514569  0.39844444  0.82623563     1.04900
O320        O  0.55084312  0.36502560  0.83575154    -1.12300
O321        O  0.57168282  0.36892835  0.92883072    -0.74700
O322        O  0.56218843  0.40861253  0.90055019    -0.78200
O323        O  0.53598322  0.36013140  0.74084217    -0.78900
C324        C  0.56800337  0.39318714  0.93412423     0.96400
O325        O  0.59151798  0.40352423  0.81212620    -0.76800
O326        O  0.54890376  0.32063698  0.89984932    -0.82000
C327        C  0.56853389  0.30612040  0.79562548     0.99000
C328        C  0.52426476  0.31845121  0.89902856     1.04900
O329        O  0.54460128  0.31180479  0.79356017    -0.77700
C330        C  0.61048610  0.38913455  0.82394731     1.03200
Fe331      Fe  0.55552571  0.11930585  0.21334188     1.65800
Fe332      Fe  0.57808866  0.17738301  0.17088836     1.73200
Fe333      Fe  0.52415853  0.17642779  0.24048579     1.54400
O334        O  0.49714891  0.14615036  0.23383388    -0.81400
O335        O  0.58447128  0.20452745  0.22227729    -0.79700
O336        O  0.51719979  0.11346580  0.19736803    -0.83900
O337        O  0.54697366  0.11989212  0.28491248    -0.78800
O338        O  0.51170144  0.19407002  0.17760008    -0.80500
O339        O  0.60945209  0.15723615  0.19771199    -0.83300
C340        C  0.54179579  0.13731738  0.31540358     0.97500
C341        C  0.49734253  0.12319321  0.21691507     1.04900
O342        O  0.55255001  0.15764030  0.20797184    -1.12300
O343        O  0.57570471  0.15266979  0.11457210    -0.74700
O344        O  0.56477619  0.11347951  0.14270815    -0.78200
O345        O  0.53549871  0.16063068  0.30461481    -0.78900
C346        C  0.57220785  0.12840301  0.10942898     0.96400
O347        O  0.59444082  0.12041529  0.23006816    -0.76800
O348        O  0.54950208  0.19985081  0.13963613    -0.82000
C349        C  0.56914681  0.21675452  0.24897151     0.99000
C350        C  0.52521138  0.20354270  0.14371897     1.04900
O351        O  0.54593093  0.20949994  0.25594206    -0.77700
C352        C  0.61282207  0.13587534  0.21963624     1.03200
C353        C  0.51036901  0.23412988  0.03713243     0.30000
C354        C  0.51353844  0.23761130  0.98831266    -0.36300
C355        C  0.51017361  0.26306696  0.97102140     0.16000
C356        C  0.50426329  0.28393728  0.99975011     0.21800
C357        C  0.50049688  0.28033584  0.04875766    -0.34400
C358        C  0.50371672  0.25466523  0.06613576     0.15900
O359        O  0.51648508  0.21283536  0.06095185    -0.26400
C360        C  0.51312874  0.21928187  0.10600802     0.05700
C361        C  0.50517386  0.24515614  0.11145052    -0.31300
O362        O  0.50613162  0.30657592  0.97706470    -0.23200
C363        C  0.51272061  0.29995708  0.93307935    -0.03100
C364        C  0.51555574  0.27317109  0.92757221    -0.17600
H365        H  0.51996214  0.22185362  0.96578266     0.20400
H366        H  0.49702758  0.29664740  0.07210864     0.18800
H367        H  0.50369886  0.25612357  0.14394488     0.18700
H368        H  0.52324380  0.26291147  0.89725834     0.14600
C369        C  0.67937439  0.13125165  0.24184424     0.30000
C370        C  0.70484053  0.14031406  0.24774514    -0.36300
C371        C  0.72380596  0.12104229  0.25471541     0.16000
C372        C  0.71811153  0.09469451  0.25512351     0.21800
C373        C  0.69266790  0.08567504  0.24956606    -0.34400
C374        C  0.67367612  0.10492362  0.24348476     0.15900
O375        O  0.65864652  0.14574009  0.23426654    -0.26400
C376        C  0.63942998  0.12845988  0.23187112     0.05700
C377        C  0.64760423  0.10278623  0.23764939    -0.31300
O378        O  0.73849733  0.08012041  0.26450022    -0.23200
C379        C  0.75749679  0.09728988  0.27060113    -0.03100
C380        C  0.74954003  0.12308721  0.26483758    -0.17600
H381        H  0.70947340  0.16093991  0.24759297     0.20400
H382        H  0.68794180  0.06508107  0.25088061     0.18800
H383        H  0.63613373  0.08510970  0.23594074     0.18700
H384        H  0.76074695  0.14073145  0.26988715     0.14600
C385        C  0.57623924  0.24298585  0.75060848     0.30000
C386        C  0.56800495  0.21796155  0.73767865    -0.36300
C387        C  0.58764278  0.19964052  0.72927172     0.16000
C388        C  0.61370944  0.20544393  0.73276131     0.21800
C389        C  0.62198204  0.23060244  0.74555118    -0.34400
C390        C  0.60226343  0.24893205  0.75451957     0.15900
O391        O  0.56106211  0.26257003  0.76277051    -0.26400
C392        C  0.57749186  0.28138590  0.77487296     0.05700
C393        C  0.60341181  0.27402243  0.77039881    -0.31300
O394        O  0.62864536  0.18488873  0.72479107    -0.23200
C395        C  0.61180816  0.16573519  0.71637317    -0.03100
C396        C  0.58609095  0.17388092  0.71865444    -0.17600
H397        H  0.54764602  0.21291440  0.73558745     0.20400
H398        H  0.64232128  0.23536168  0.74946726     0.18800
H399        H  0.62053522  0.28520300  0.77922453     0.18700
H400        H  0.56871159  0.16232701  0.71389379     0.14600
C401        C  0.70844590  0.03037517  0.52600788     0.30000
C402        C  0.71246148  0.03293461  0.47715024    -0.36300
C403        C  0.73809253  0.02999252  0.46129682     0.16000
C404        C  0.75854537  0.02507273  0.49144531     0.21800
C405        C  0.75439670  0.02174365  0.54029402    -0.34400
C406        C  0.72863466  0.02442078  0.55615669     0.15900
O407        O  0.68702433  0.03673928  0.54880479    -0.26400
C408        C  0.69316397  0.03410721  0.59424699     0.05700
C409        C  0.71879809  0.02629807  0.60091466    -0.31300
O410        O  0.78130758  0.02746640  0.47013161    -0.23200
C411        C  0.77530479  0.03332510  0.42552142    -0.03100
C412        C  0.74871028  0.03521248  0.41820508    -0.17600
H413        H  0.69698770  0.03875614  0.45355263     0.20400
H414        H  0.77035729  0.01910271  0.56463304     0.18800
H415        H  0.72947489  0.02553093  0.63378935     0.18700
H416        H  0.73882434  0.04231184  0.38696359     0.14600
C417        C  0.60710549  0.07849254  0.93175065     0.30000
C418        C  0.59681864  0.07093332  0.97584981    -0.36300
C419        C  0.59038033  0.09139761  0.00678004     0.16000
C420        C  0.59407538  0.11732085  0.99497237     0.21800
C421        C  0.60447076  0.12480915  0.95145851    -0.34400
C422        C  0.61069917  0.10454049  0.92074001     0.15900
O423        O  0.61232623  0.06306980  0.89556918    -0.26400
C424        C  0.61930669  0.07968460  0.86149783     0.05700
C425        C  0.61873241  0.10560165  0.87533047    -0.31300
O426        O  0.58711127  0.13332854  0.02872232    -0.23200
C427        C  0.57869206  0.11769188  0.06295698    -0.03100
C428        C  0.58018083  0.09128343  0.05142389    -0.17600
H429        H  0.59348904  0.05065191  0.98492292     0.20400
H430        H  0.60705573  0.14513307  0.94184402     0.18800
H431        H  0.62196962  0.12284019  0.85381053     0.18700
H432        H  0.57536350  0.07456254  0.07325127     0.14600
C433        C  0.55575740  0.13317699  0.43568262     0.30000
C434        C  0.56672458  0.14211430  0.47777131    -0.36300
C435        C  0.57312267  0.12287614  0.51101375     0.16000
C436        C  0.56837041  0.09660534  0.50428025     0.21800
C437        C  0.55719177  0.08764666  0.46217193    -0.34400
C438        C  0.55145247  0.10688635  0.42822372     0.15900
O439        O  0.55131216  0.14751607  0.39780326    -0.26400
C440        C  0.54437194  0.13021894  0.36539624     0.05700
C441        C  0.54396076  0.10464426  0.38234158    -0.31300
O442        O  0.57734636  0.08198386  0.53924199    -0.23200
C443        C  0.58824212  0.09923311  0.56804386    -0.03100
C444        C  0.58624938  0.12484872  0.55223994    -0.17600
H445        H  0.57133264  0.16251048  0.48311125     0.20400
H446        H  0.55446719  0.06704730  0.45533731     0.18800
H447        H  0.54033309  0.08688545  0.36281889     0.18700
H448        H  0.59398946  0.14231698  0.56837739     0.14600
C449        C  0.90486044  0.09262730  0.04251475     0.30000
C450        C  0.91342177  0.08450626  0.08712538    -0.36300
C451        C  0.89415407  0.07537706  0.11799067     0.16000
C452        C  0.86825812  0.07391117  0.10576393     0.21800
C453        C  0.85976275  0.08158611  0.06086029    -0.34400
C454        C  0.87894081  0.09121802  0.03034528     0.15900
O455        O  0.91909626  0.10412287  0.00970662    -0.26400
C456        C  0.90192087  0.11028312  0.97657611     0.05700
C457        C  0.87674533  0.10277319  0.98738160    -0.31300
O458        O  0.85325008  0.06766383  0.14185351    -0.23200
C459        C  0.86977829  0.06519758  0.17757212    -0.03100
C460        C  0.89547023  0.06950849  0.16464146    -0.17600
H461        H  0.93344701  0.08655716  0.09795443     0.20400
H462        H  0.83942509  0.08157152  0.05139056     0.18800
H463        H  0.85927454  0.10616657  0.96706257     0.18700
H464        H  0.91241432  0.07015309  0.18716824     0.14600
C465        C  0.87612029  0.10928909  0.54978898     0.30000
C466        C  0.86825855  0.11656795  0.59503093    -0.36300
C467        C  0.88799128  0.12460501  0.62531424     0.16000
C468        C  0.91378901  0.12571745  0.61220525     0.21800
C469        C  0.92169238  0.11837514  0.56665680    -0.34400
C470        C  0.90187210  0.10999784  0.53630931     0.15900
O471        O  0.86067386  0.10176200  0.51566198    -0.26400
C472        C  0.87664427  0.09730466  0.47979563     0.05700
C473        C  0.90257750  0.10196261  0.49050334    -0.31300
O474        O  0.92899884  0.13274728  0.64745049    -0.23200
C475        C  0.91254715  0.13593624  0.68322065    -0.03100
C476        C  0.88688008  0.13121555  0.67138708    -0.17600
H477        H  0.84813918  0.11580028  0.60600119     0.20400
H478        H  0.94184450  0.11882450  0.55586779     0.18800
H479        H  0.91925602  0.10079217  0.46732292     0.18700
H480        H  0.86998641  0.13149039  0.69418106     0.14600
C481        C  0.79981957  0.11194924  0.82147867     0.30000
C482        C  0.78232490  0.09100024  0.81904986    -0.36300
C483        C  0.75879731  0.09613014  0.79599367     0.16000
C484        C  0.75305464  0.12015209  0.77629268     0.21800
C485        C  0.77034548  0.14121535  0.77950166    -0.34400
C486        C  0.79374644  0.13617203  0.80295961     0.15900
O487        O  0.82354913  0.11102546  0.83857549    -0.26400
C488        C  0.83267175  0.13504145  0.83150232     0.05700
C489        C  0.81491726  0.15162186  0.80980606    -0.31300
O490        O  0.73066814  0.12022828  0.75393040    -0.23200
C491        C  0.72173771  0.09606332  0.75988313    -0.03100
C492        C  0.73836713  0.08019375  0.78598518    -0.17600
H493        H  0.78700689  0.07187301  0.83309601     0.20400
H494        H  0.76610268  0.16004934  0.76379233     0.18800
H495        H  0.81772834  0.17163999  0.79846447     0.18700
H496        H  0.73613094  0.05972109  0.79478466     0.14600
C497        C  0.90630568  0.23807792  0.27749855     0.30000
C498        C  0.91477562  0.21227014  0.28396650    -0.36300
C499        C  0.89543238  0.19384336  0.29414597     0.16000
C500        C  0.86957939  0.20042370  0.29866640     0.21800
C501        C  0.86108415  0.22621389  0.29195045    -0.34400
C502        C  0.88037647  0.24456669  0.28092954     0.15900
O503        O  0.92088825  0.25811380  0.26508748    -0.26400
C504        C  0.90407458  0.27764820  0.26008296     0.05700
C505        C  0.87858077  0.27036438  0.26950840    -0.31300
O506        O  0.85486227  0.18010194  0.30887367    -0.23200
C507        C  0.87145714  0.16019272  0.31018414    -0.03100
C508        C  0.89695247  0.16756763  0.30112070    -0.17600
H509        H  0.93498221  0.20684173  0.28032030     0.20400
H510        H  0.84078686  0.23151511  0.29433911     0.18800
H511        H  0.86119313  0.28213285  0.26659903     0.18700
H512        H  0.91413010  0.15539457  0.30064790     0.14600
C513        C  0.97352030  0.25280493  0.97218360     0.30000
C514        C  0.97372805  0.27951966  0.98361424    -0.36300
C515        C  0.97354370  0.28557174  0.03203122     0.16000
C516        C  0.97342763  0.26660576  0.06683001     0.21800
C517        C  0.97356148  0.23996030  0.05542310    -0.34400
C518        C  0.97344536  0.23392464  0.00712440     0.15900
O519        O  0.96920608  0.24292973  0.92983635    -0.26400
C520        C  0.96641988  0.21739881  0.93765826     0.05700
C521        C  0.96885767  0.21077433  0.98515702    -0.31300
O522        O  0.96927968  0.27633069  0.10926914    -0.23200
C523        C  0.96708032  0.30192037  0.10194552    -0.03100
C524        C  0.96939133  0.30876844  0.05447651    -0.17600
H525        H  0.97206989  0.29450787  0.95670799     0.20400
H526        H  0.97177232  0.22498586  0.08233308     0.18800
H527        H  0.96474854  0.19211466  0.00165829     0.18700
H528        H  0.96570444  0.32763136  0.03841839     0.14600
C529        C  0.91309851  0.38508552  0.42283501     0.30000
C530        C  0.89733713  0.37769634  0.46077231    -0.36300
C531        C  0.89316413  0.39681339  0.49501899     0.16000
C532        C  0.90423695  0.42135795  0.49305189     0.21800
C533        C  0.91989741  0.42883839  0.45481517    -0.34400
C534        C  0.92360232  0.40986565  0.41987273     0.15900
O535        O  0.91759577  0.37104718  0.38490975    -0.26400
C536        C  0.93089731  0.38710511  0.35709664     0.05700
C537        C  0.93523246  0.41151644  0.37688232    -0.31300
O538        O  0.89755903  0.43606629  0.52927623    -0.23200
C539        C  0.88164630  0.42076890  0.55389488    -0.03100
C540        C  0.87815346  0.39624696  0.53419127    -0.17600
H541        H  0.88821806  0.35867533  0.46261989     0.20400
H542        H  0.92796202  0.44829342  0.45180983     0.18800
H543        H  0.94423490  0.42844528  0.36071829     0.18700
H544        H  0.86646703  0.38020816  0.54732156     0.14600
C545        C  0.89300154  0.40198007  0.98415102     0.30000
C546        C  0.88895925  0.39458946  0.93739790    -0.36300
C547        C  0.87945041  0.41403831  0.90745432     0.16000
C548        C  0.87393554  0.43911838  0.92216969     0.21800
C549        C  0.87819100  0.44661402  0.96923485    -0.34400
C550        C  0.88808273  0.42710644  0.99933251     0.15900
O551        O  0.90092992  0.38648227  0.01822683    -0.26400
C552        C  0.90150942  0.40183071  0.05582001     0.05700
C553        C  0.89385627  0.42740567  0.04632705    -0.31300
O554        O  0.86546960  0.45411639  0.88727474    -0.23200
C555        C  0.86591147  0.43826275  0.85012942    -0.03100
C556        C  0.87439402  0.41320377  0.86075346    -0.17600
H557        H  0.89293678  0.37497307  0.92519842     0.20400
H558        H  0.87417233  0.46620977  0.98145887     0.18800
H559        H  0.89164292  0.44340981  0.07087066     0.18700
H560        H  0.87697882  0.39685295  0.83704997     0.14600
C561        C  0.88557805  0.32269926  0.72020378     0.30000
C562        C  0.90630194  0.30491221  0.72209317    -0.36300
C563        C  0.90104028  0.28084701  0.74394257     0.16000
C564        C  0.87714821  0.27492717  0.76328224     0.21800
C565        C  0.85632881  0.29253638  0.76065474    -0.34400
C566        C  0.86147076  0.31644035  0.73822416     0.15900
O567        O  0.88648721  0.34669871  0.70332319    -0.26400
C568        C  0.86257886  0.35583459  0.71002748     0.05700
C569        C  0.84610061  0.33780982  0.73136939    -0.31300
O570        O  0.87695145  0.25206434  0.78481552    -0.23200
C571        C  0.90087068  0.24297071  0.77849699    -0.03100
C572        C  0.91671319  0.25996383  0.75304534    -0.17600
H573        H  0.92532114  0.30969611  0.70827539     0.20400
H574        H  0.83756321  0.28809951  0.77588598     0.18800
H575        H  0.82608328  0.34044156  0.74191378     0.18700
H576        H  0.93707194  0.25774671  0.74448157     0.14600
C577        C  0.67658336  0.39479271  0.79589724     0.30000
C578        C  0.70175999  0.38578687  0.78652649    -0.36300
C579        C  0.72040195  0.40499264  0.77670515     0.16000
C580        C  0.71484944  0.43136402  0.77684126     0.21800
C581        C  0.68951448  0.44038541  0.78558015    -0.34400
C582        C  0.67071815  0.42109241  0.79460319     0.15900
O583        O  0.65627533  0.38015205  0.80614275    -0.26400
C584        C  0.63696052  0.39719670  0.81072154     0.05700
C585        C  0.64476138  0.42297412  0.80364179    -0.31300
O586        O  0.73521452  0.44580116  0.76552558    -0.23200
C587        C  0.75393484  0.42838367  0.75766972    -0.03100
C588        C  0.74574325  0.40272933  0.76381072    -0.17600
H589        H  0.70643280  0.36516709  0.78636283     0.20400
H590        H  0.68471337  0.46097442  0.78471237     0.18800
H591        H  0.63311474  0.44052694  0.80595560     0.18700
H592        H  0.75669219  0.38497681  0.75801196     0.14600
C593        C  0.75477348  0.40332417  0.25967910     0.30000
C594        C  0.77201247  0.38236606  0.25372579    -0.36300
C595        C  0.79764668  0.38902231  0.24223317     0.16000
C596        C  0.80588578  0.41455930  0.23778113     0.21800
C597        C  0.78850709  0.43551032  0.24274789    -0.34400
C598        C  0.76272812  0.42883439  0.25328052     0.15900
O599        O  0.73045369  0.40165722  0.27383380    -0.26400
C600        C  0.72248942  0.42636689  0.27525692     0.05700
C601        C  0.74167925  0.44413768  0.26251780    -0.31300
O602        O  0.83090518  0.41629389  0.22836739    -0.23200
C603        C  0.83868914  0.39153675  0.22604127    -0.03100
C604        C  0.81880079  0.37372072  0.23412544    -0.17600
H605        H  0.76596108  0.36229291  0.25850857     0.20400
H606        H  0.79471417  0.45560932  0.23920699     0.18800
H607        H  0.74079431  0.46524758  0.26354838     0.18700
H608        H  0.81985279  0.35260754  0.23417546     0.14600
C609        C  0.76621401  0.49689383  0.52914087     0.30000
C610        C  0.76173134  0.49628717  0.48022934    -0.36300
C611        C  0.73570270  0.49772743  0.46592824     0.16000
C612        C  0.71542583  0.49913011  0.49770546     0.21800
C613        C  0.71998490  0.50088753  0.54649874    -0.34400
C614        C  0.74604203  0.49992991  0.56076089     0.15900
O615        O  0.78819009  0.49068256  0.55026140    -0.26400
C616        C  0.78228969  0.49062463  0.59607140     0.05700
C617        C  0.75638339  0.49650513  0.60466087    -0.31300
O618        O  0.69276991  0.49453068  0.47771157    -0.23200
C619        C  0.69843489  0.49111578  0.43224843    -0.03100
C620        C  0.72485587  0.49305747  0.42290552    -0.17600
H621        H  0.77724496  0.49265848  0.45531121     0.20400
H622        H  0.70424049  0.50072247  0.57182074     0.18800
H623        H  0.74596538  0.49465602  0.63774020     0.18700
H624        H  0.73485329  0.48790891  0.39059354     0.14600
C625        C  0.60274736  0.27294109  0.28316561     0.30000
C626        C  0.62309097  0.29116994  0.28200927    -0.36300
C627        C  0.61859604  0.31468724  0.30591267     0.16000
C628        C  0.59555897  0.31991556  0.32892947     0.21800
C629        C  0.57536677  0.30158582  0.33053712    -0.34400
C630        C  0.57990373  0.27805388  0.30686990     0.15900
O631        O  0.60220481  0.25036518  0.26105123    -0.26400
C632        C  0.57875929  0.24084827  0.27082464     0.05700
C633        C  0.56404933  0.25720127  0.29938101    -0.31300
O634        O  0.59476035  0.34373070  0.34618408    -0.23200
C635        C  0.61768860  0.35384299  0.33470278    -0.03100
C636        C  0.63343835  0.33663399  0.30978627    -0.17600
H637        H  0.64089809  0.28753113  0.26282536     0.20400
H638        H  0.55711511  0.30568909  0.34792729     0.18800
H639        H  0.54423561  0.25460050  0.31117962     0.18700
H640        H  0.65244606  0.34022795  0.29482115     0.14600
C641        C  0.58028860  0.40215478  0.05301953     0.30000
C642        C  0.58503602  0.39365753  0.09902741    -0.36300
C643        C  0.59565147  0.41219564  0.12919740     0.16000
C644        C  0.60138671  0.43744204  0.11535397     0.21800
C645        C  0.59639245  0.44606181  0.06909964    -0.34400
C646        C  0.58550972  0.42745377  0.03875064     0.15900
O647        O  0.57212863  0.38738691  0.01845003    -0.26400
C648        C  0.57176979  0.40336723  0.98149978     0.05700
C649        C  0.57963023  0.42868600  0.99187961    -0.31300
O650        O  0.61085417  0.45150009  0.15027964    -0.23200
C651        C  0.61088707  0.43490220  0.18656749    -0.03100
C652        C  0.60175801  0.41022195  0.17538347    -0.17600
H653        H  0.58101086  0.37384409  0.11035817     0.20400
H654        H  0.60077869  0.46575620  0.05757203     0.18800
H655        H  0.58245187  0.44492508  0.96779925     0.18700
H656        H  0.59925792  0.39347500  0.19845104     0.14600
C657        C  0.58853552  0.40399231  0.54474419     0.30000
C658        C  0.58669841  0.38417517  0.57851685    -0.36300
C659        C  0.56948224  0.38874426  0.61551162     0.16000
C660        C  0.55565097  0.41169068  0.62010479     0.21800
C661        C  0.55713398  0.43149083  0.58560951    -0.34400
C662        C  0.57389345  0.42653365  0.54753500     0.15900
O663        O  0.60325440  0.40330480  0.50709042    -0.26400
C664        C  0.59780029  0.42540613  0.48469813     0.05700
C665        C  0.57953961  0.44077007  0.50788245    -0.31300
O666        O  0.54266176  0.41258642  0.66022038    -0.23200
C667        C  0.54770777  0.38956792  0.68033194    -0.03100
C668        C  0.56411088  0.37392085  0.65399463    -0.17600
H669        H  0.59799152  0.36638900  0.57610347     0.20400
H670        H  0.54620504  0.44947947  0.58844839     0.18800
H671        H  0.57159378  0.45942398  0.49702735     0.18700
H672        H  0.57254743  0.35528919  0.66374345     0.14600
C673        C  0.03288349  0.09074065  0.77665480     0.30000
C674        C  0.05976868  0.08613880  0.77180784    -0.36300
C675        C  0.06694494  0.06328607  0.74719443     0.16000
C676        C  0.04884298  0.04657813  0.72799866     0.21800
C677        C  0.02223036  0.05114934  0.73276229    -0.34400
C678        C  0.01517317  0.07342144  0.75811099     0.15900
O679        O  0.02145449  0.11038381  0.79915195    -0.26400
C680        C  0.99618868  0.10497625  0.79556314     0.05700
C681        C  0.99138187  0.08222650  0.77043098    -0.31300
O682        O  0.05930801  0.02545565  0.70975305    -0.23200
C683        C  0.08460690  0.02822001  0.71725993    -0.03100
C684        C  0.09057403  0.05151817  0.74036972    -0.17600
H685        H  0.07404299  0.09897854  0.78736433     0.20400
H686        H  0.00793429  0.03765138  0.71916215     0.18800
H687        H  0.97282024  0.07365800  0.76157802     0.18700
H688        H  0.10926322  0.05786926  0.75334531     0.14600
C689        C  0.41204567  0.05431939  0.28411716     0.30000
C690        C  0.41691712  0.08133848  0.27898397    -0.36300
C691        C  0.44022042  0.08822897  0.25565860     0.16000
C692        C  0.45716696  0.06973173  0.23827244     0.21800
C693        C  0.45257183  0.04304774  0.24407778    -0.34400
C694        C  0.42976649  0.03629143  0.26778903     0.15900
O695        O  0.39131969  0.04300171  0.30335855    -0.26400
C696        C  0.39644882  0.01749588  0.29989125     0.05700
C697        C  0.42015586  0.01246246  0.27833192    -0.31300
O698        O  0.47814599  0.07997361  0.21938918    -0.23200
C699        C  0.47509303  0.10555611  0.22464048    -0.03100
C700        C  0.45178677  0.11193304  0.24715708    -0.17600
H701        H  0.40363216  0.09591329  0.29242635     0.20400
H702        H  0.46610946  0.02846587  0.23145236     0.18800
H703        H  0.42863568  0.99371438  0.26970413     0.18700
H704        H  0.44513880  0.13101384  0.25818770     0.14600
C705        C  0.21671679  0.99853631  0.53420803     0.30000
C706        C  0.22078707  0.99917555  0.48497612    -0.36300
C707        C  0.24667404  0.99679890  0.46957702     0.16000
C708        C  0.26705382  0.99358041  0.50060420     0.21800
C709        C  0.26308147  0.99380084  0.54969283    -0.34400
C710        C  0.23732643  0.99654888  0.56504030     0.15900
O711        O  0.19409635  0.99581856  0.55588683    -0.26400
C712        C  0.20026265  0.99288521  0.60135944     0.05700
C713        C  0.22690023  0.99321716  0.60891346    -0.31300
O714        O  0.28880712  0.98697650  0.47906751    -0.23200
C715        C  0.28268593  0.98673746  0.43337745    -0.03100
C716        C  0.25670034  0.99283570  0.42537590    -0.17600
H717        H  0.20475467  0.99953192  0.46035794     0.20400
H718        H  0.27876192  0.99010149  0.57419667     0.18800
H719        H  0.23710711  0.98818751  0.64109286     0.18700
H720        H  0.24609039  0.99128709  0.39254017     0.14600
C721        C  0.92808210  0.53926656  0.75399169     0.30000
C722        C  0.95209300  0.54365112  0.77557929    -0.36300
C723        C  0.95722819  0.56934727  0.78927486     0.16000
C724        C  0.94035242  0.58975455  0.78101273     0.21800
C725        C  0.91592667  0.58525452  0.75996658    -0.34400
C726        C  0.91043383  0.55919238  0.74725633     0.15900
O727        O  0.91919727  0.51641113  0.74053990    -0.26400
C728        C  0.89527602  0.52128408  0.72530886     0.05700
C729        C  0.88864930  0.54767841  0.72870864    -0.31300
O730        O  0.95039579  0.61259590  0.79337067    -0.23200
C731        C  0.97365128  0.60642380  0.81102096    -0.03100
C732        C  0.97867820  0.57975658  0.80953432    -0.17600
H733        H  0.96582586  0.52797345  0.78160442     0.20400
H734        H  0.90221367  0.60092849  0.75388926     0.18800
H735        H  0.87023872  0.55680266  0.72056855     0.18700
H736        H  0.99648715  0.56971179  0.81866699     0.14600
C737        C  0.08580664  0.83037287  0.73449031     0.30000
C738        C  0.06475204  0.81421858  0.74591272    -0.36300
C739        C  0.07030612  0.78757142  0.75106473     0.16000
C740        C  0.09498118  0.77746166  0.74613653     0.21800
C741        C  0.11600709  0.79357720  0.73368698    -0.34400
C742        C  0.11036853  0.82026017  0.72791450     0.15900
O743        O  0.08502195  0.85594810  0.72920343    -0.26400
C744        C  0.10934044  0.86238793  0.71860018     0.05700
C745        C  0.12596541  0.84095068  0.71695457    -0.31300
O746        O  0.09602044  0.75228991  0.75648687    -0.23200
C747        C  0.07157874  0.74618218  0.76722067    -0.03100
C748        C  0.05475957  0.76734233  0.76411504    -0.17600
H749        H  0.04542356  0.82196861  0.75123018     0.20400
H750        H  0.13547681  0.78594674  0.72974362     0.18800
H751        H  0.14654438  0.84072677  0.70930821     0.18700
H752        H  0.03435015  0.76803079  0.77312690     0.14600
C753        C  0.91032461  0.96393513  0.28115271     0.30000
C754        C  0.91523132  0.94180046  0.25283753    -0.36300
C755        C  0.94153089  0.93479045  0.24709030     0.16000
C756        C  0.96132425  0.94907959  0.26708782     0.21800
C757        C  0.95643819  0.97069777  0.29572875    -0.34400
C758        C  0.93040335  0.97724561  0.30229811     0.15900
O759        O  0.88762511  0.97534744  0.28874687    -0.26400
C760        C  0.89340431  0.99583089  0.31589683     0.05700
C761        C  0.91973308  0.99768837  0.32562515    -0.31300
O762        O  0.98438574  0.93975631  0.25717175    -0.23200
C763        C  0.97976175  0.91882633  0.23095925    -0.03100
C764        C  0.95332627  0.91455352  0.22351839    -0.17600
H765        H  0.89972262  0.93104206  0.23607013     0.20400
H766        H  0.97198849  0.98181865  0.31160148     0.18800
H767        H  0.92984719  0.01321180  0.34377992     0.18700
H768        H  0.94422497  0.89882294  0.20425582     0.14600
C769        C  0.22620132  0.89930958  0.25423011     0.30000
C770        C  0.20813821  0.87884209  0.25277122    -0.36300
C771        C  0.18422696  0.88474768  0.23178086     0.16000
C772        C  0.17846412  0.90919413  0.21388158     0.21800
C773        C  0.19676036  0.92944304  0.21423307    -0.34400
C774        C  0.22074703  0.92347350  0.23480655     0.15900
O775        O  0.24883880  0.89877328  0.27569757    -0.26400
C776        C  0.25819640  0.92273539  0.26919828     0.05700
C777        C  0.24167802  0.93891219  0.24362590    -0.31300
O778        O  0.15431042  0.91103256  0.19923185    -0.23200
C779        C  0.14455362  0.88738604  0.20724030    -0.03100
C780        C  0.16231680  0.87011382  0.22712430    -0.17600
H781        H  0.21212796  0.85991649  0.26836533     0.20400
H782        H  0.19229819  0.94875707  0.20078226     0.18800
H783        H  0.24404689  0.95945009  0.23545526     0.18700
H784        H  0.15919011  0.85010838  0.23827856     0.14600
C785        C  0.00037559  0.74450652  0.98758246     0.30000
C786        C  0.99658438  0.74868198  0.03629662    -0.36300
C787        C  0.00042094  0.77438178  0.05243726     0.16000
C788        C  0.00765132  0.79446035  0.02253063     0.21800
C789        C  0.01069274  0.79047125  0.97385802    -0.34400
C790        C  0.00680292  0.76492324  0.95782077     0.15900
O791        O  0.00210868  0.72156355  0.96636066    -0.26400
C792        C  0.00919900  0.72748345  0.92227502     0.05700
C793        C  0.01243638  0.75415277  0.91517776    -0.31300
O794        O  0.01491018  0.81553285  0.04551763    -0.23200
C795        C  0.01182233  0.80934492  0.09088884    -0.03100
C796        C  0.00258885  0.78399290  0.09736487    -0.17600
H797        H  0.99289618  0.73266776  0.06044261     0.20400
H798        H  0.01768822  0.80579082  0.95066806     0.18800
H799        H  0.02064840  0.76385898  0.88455889     0.18700
H800        H  0.00113436  0.77316065  0.13017939     0.14600
C801        C  0.06005244  0.89944580  0.42325874     0.30000
C802        C  0.05228866  0.90696478  0.46893906    -0.36300
C803        C  0.07211867  0.91633138  0.49853526     0.16000
C804        C  0.09765185  0.91798293  0.48397665     0.21800
C805        C  0.10532269  0.91057929  0.43879745    -0.34400
C806        C  0.08570246  0.90131726  0.40957799     0.15900
O807        O  0.04492082  0.89141749  0.38843140    -0.26400
C808        C  0.06138641  0.88825522  0.35254471     0.05700
C809        C  0.08689085  0.89395864  0.36401062    -0.31300
O810        O  0.11334400  0.92569205  0.51750065    -0.23200
C811        C  0.09787554  0.92921614  0.55435596    -0.03100
C812        C  0.07188206  0.92395285  0.54473177    -0.17600
H813        H  0.03230343  0.90568279  0.48050696     0.20400
H814        H  0.12532112  0.91184184  0.42725787     0.18800
H815        H  0.10372602  0.89404800  0.34106435     0.18700
H816        H  0.05561331  0.92404056  0.56895524     0.14600
C817        C  0.10149415  0.92410387  0.00171705     0.30000
C818        C  0.12195073  0.92677387  0.96963291    -0.36300
C819        C  0.11629098  0.94050426  0.92823595     0.16000
C820        C  0.09197690  0.95050559  0.91860196     0.21800
C821        C  0.07163863  0.94855636  0.95154337    -0.34400
C822        C  0.07744255  0.93509894  0.99349278     0.15900
O823        O  0.10216686  0.91029914  0.04076718    -0.26400
C824        C  0.07845074  0.91276505  0.05844173     0.05700
C825        C  0.06214802  0.92823295  0.03100181    -0.31300
O826        O  0.09024470  0.95964939  0.87514972    -0.23200
C827        C  0.11391103  0.95598703  0.85747985    -0.03100
C828        C  0.13098620  0.94440845  0.88902308    -0.17600
H829        H  0.14070305  0.91785464  0.97573557     0.20400
H830        H  0.05241549  0.95602912  0.94415912     0.18800
H831        H  0.04184287  0.93261446  0.03666945     0.18700
H832        H  0.15062813  0.93781873  0.88255486     0.14600
C833        C  0.01942344  0.45358017  0.23193738     0.30000
C834        C  0.02429253  0.48039064  0.23545790    -0.36300
C835        C  0.04595756  0.48752774  0.26222195     0.16000
C836        C  0.06226201  0.46966210  0.28354392     0.21800
C837        C  0.05718543  0.44266349  0.28044233    -0.34400
C838        C  0.03515312  0.43545605  0.25400783     0.15900
O839        O  0.99919795  0.44292491  0.21115198    -0.26400
C840        C  0.00171727  0.41750420  0.21983301     0.05700
C841        C  0.02380146  0.41168308  0.24641361    -0.31300
O842        O  0.08197820  0.48103662  0.30550292    -0.23200
C843        C  0.07775002  0.50649654  0.29871153    -0.03100
C844        C  0.05555489  0.51148862  0.27224184    -0.17600
H845        H  0.01174812  0.49476847  0.21909344     0.20400
H846        H  0.06936881  0.42831783  0.29776257     0.18800
H847        H  0.02967935  0.39293609  0.26063153     0.18700
H848        H  0.04809157  0.53019290  0.26050856     0.14600
C849        C  0.07214194  0.62351335  0.52914087     0.30000
C850        C  0.06542868  0.64439634  0.55841018    -0.36300
C851        C  0.05422278  0.63768103  0.60175419     0.16000
C852        C  0.05009292  0.61211366  0.61554113     0.21800
C853        C  0.05588525  0.59120090  0.58537744    -0.34400
C854        C  0.06699359  0.59794515  0.54176135     0.15900
O855        O  0.08507605  0.62535016  0.48929275    -0.26400
C856        C  0.08787021  0.60073883  0.47569230     0.05700
C857        C  0.07678002  0.58273188  0.50650169    -0.31300
O858        O  0.04289412  0.61023983  0.66009404    -0.23200
C859        C  0.04202345  0.63491836  0.67458670    -0.03100
C860        C  0.04851633  0.65284864  0.63961574    -0.17600
H861        H  0.06989957  0.66442784  0.54906815     0.20400
H862        H  0.05322353  0.57106759  0.59617732     0.18800
H863        H  0.07708858  0.56163160  0.50437963     0.18700
H864        H  0.05095523  0.67376374  0.64291952     0.14600
C865        C  0.08278146  0.60164473  0.03418551     0.30000
C866        C  0.09107147  0.58027641  0.06176842    -0.36300
C867        C  0.09884678  0.58609086  0.10815230     0.16000
C868        C  0.09799256  0.61112807  0.12599175     0.21800
C869        C  0.08973369  0.63232305  0.09867275    -0.34400
C870        C  0.08230860  0.62657527  0.05250254     0.15900
O871        O  0.07620826  0.60121743  0.98907795    -0.26400
C872        C  0.07159952  0.62621789  0.97876784     0.05700
C873        C  0.07494366  0.64275539  0.01702015    -0.31300
O874        O  0.10493629  0.61223784  0.17046897    -0.23200
C875        C  0.11073862  0.58770962  0.18156096    -0.03100
C876        C  0.10748667  0.57044109  0.14416769    -0.17600
H877        H  0.09175712  0.56062513  0.04787222     0.20400
H878        H  0.08929214  0.65201810  0.11244573     0.18800
H879        H  0.07343593  0.66384533  0.01788784     0.18700
H880        H  0.10969037  0.54941711  0.14434357     0.14600
C881        C  0.09401207  0.70428158  0.32284919     0.30000
C882        C  0.07428107  0.72312527  0.32468166    -0.36300
C883        C  0.07835422  0.74570564  0.29756630     0.16000
C884        C  0.10024098  0.74932892  0.27017329     0.21800
C885        C  0.12024734  0.73073087  0.26916216    -0.34400
C886        C  0.11630267  0.70825957  0.29670852     0.15900
O887        O  0.09323604  0.68092705  0.34237500    -0.26400
C888        C  0.11549665  0.66994967  0.32935525     0.05700
C889        C  0.13079402  0.68609281  0.30121231    -0.31300
O890        O  0.09919300  0.77098030  0.24498056    -0.23200
C891        C  0.07650891  0.78153246  0.25680107    -0.03100
C892        C  0.06274898  0.76676610  0.28966938    -0.17600
H893        H  0.05662804  0.72002251  0.34466977     0.20400
H894        H  0.13732943  0.73326702  0.24734818     0.18800
H895        H  0.14903024  0.68151076  0.28414411     0.18700
H896        H  0.04364070  0.77047848  0.30405425     0.14600
C897        C  0.42283949  0.47838653  0.75575523     0.30000
C898        C  0.44728722  0.47602723  0.77656899    -0.36300
C899        C  0.45386042  0.45123330  0.79343526     0.16000
C900        C  0.43796048  0.42975386  0.78877686     0.21800
C901        C  0.41293063  0.43229276  0.76906145    -0.34400
C902        C  0.40596545  0.45752833  0.75329255     0.15900
O903        O  0.41287970  0.50012375  0.73896447    -0.26400
C904        C  0.38900584  0.49360367  0.72610262     0.05700
C905        C  0.38339601  0.46731325  0.73455239    -0.31300
O906        O  0.44963454  0.40788090  0.80232133    -0.23200
C907        C  0.47290011  0.41585841  0.81715654    -0.03100
C908        C  0.47630174  0.44265867  0.81285833    -0.17600
H909        H  0.46038400  0.49247625  0.77929143     0.20400
H910        H  0.39995965  0.41578372  0.76580048     0.18800
H911        H  0.36522614  0.45719315  0.72910893     0.18700
H912        H  0.49377414  0.45387148  0.81897169     0.14600
C913        C  0.17550994  0.63148348  0.79472304     0.30000
C914        C  0.20137151  0.63909291  0.78726853    -0.36300
C915        C  0.21885053  0.61896983  0.77618842     0.16000
C916        C  0.21147506  0.59310782  0.77332219     0.21800
C917        C  0.18562387  0.58555746  0.78030857    -0.34400
C918        C  0.16811532  0.60568697  0.79063525     0.15900
O919        O  0.15586521  0.64696442  0.80542188    -0.26400
C920        C  0.13562181  0.63085213  0.80747903     0.05700
C921        C  0.14211534  0.60499493  0.79839406    -0.31300
O922        O  0.23080540  0.57759763  0.76138121    -0.23200
C923        C  0.25081795  0.59372614  0.75607660    -0.03100
C924        C  0.24451928  0.61971554  0.76475902    -0.17600
H925        H  0.20738536  0.65931092  0.78938956     0.20400
H926        H  0.17950507  0.56541208  0.77719763     0.18800
H927        H  0.12952396  0.58807792  0.79834596     0.18700
H928        H  0.25688720  0.63672247  0.76169473     0.14600
C929        C  0.20515332  0.52466886  0.50718322     0.30000
C930        C  0.20945169  0.52559784  0.55608396    -0.36300
C931        C  0.23523095  0.52261797  0.57092215     0.16000
C932        C  0.25555050  0.51915762  0.53976614     0.21800
C933        C  0.25108861  0.51713314  0.49088222    -0.34400
C934        C  0.22519608  0.51991162  0.47600241     0.15900
O935        O  0.18371379  0.53213709  0.48559998    -0.26400
C936        C  0.18969176  0.53144007  0.43984976     0.05700
C937        C  0.21520826  0.52368984  0.43178429    -0.31300
O938        O  0.27839372  0.52218482  0.56027829    -0.23200
C939        C  0.27260212  0.52688641  0.60533720    -0.03100
C940        C  0.24606317  0.52731637  0.61385463    -0.17600
H941        H  0.19411556  0.53065234  0.58054301     0.20400
H942        H  0.26692503  0.51578521  0.46588431     0.18800
H943        H  0.22581739  0.52447282  0.39878454     0.18700
H944        H  0.23623882  0.53359427  0.64567831     0.14600
C945        C  0.54716114  0.53400839  0.27641430     0.30000
C946        C  0.52272892  0.53734696  0.25581381    -0.36300
C947        C  0.51580921  0.56295462  0.24401008     0.16000
C948        C  0.53149915  0.58419471  0.25258440     0.21800
C949        C  0.55630970  0.58078360  0.27302086    -0.34400
C950        C  0.56352941  0.55484013  0.28422671     0.15900
O951        O  0.55741203  0.51149783  0.28878296    -0.26400
C952        C  0.58094342  0.51749479  0.30455453     0.05700
C953        C  0.58595956  0.54429964  0.30253381    -0.31300
O954        O  0.51999316  0.60659667  0.24120533    -0.23200
C955        C  0.49684029  0.59933250  0.22452467    -0.03100
C956        C  0.49346913  0.57237570  0.22535965    -0.17600
H957        H  0.50993103  0.52098692  0.24935033     0.20400
H958        H  0.56901876  0.59715299  0.27983829     0.18800
H959        H  0.60363975  0.55438394  0.31195348     0.18700
H960        H  0.47628452  0.56134223  0.21625903     0.14600
C961        C  0.37406940  0.60276042  0.99601882     0.30000
C962        C  0.35330863  0.60022119  0.96459800    -0.36300
C963        C  0.35759685  0.58394948  0.92588287     0.16000
C964        C  0.38098777  0.57156465  0.91796255     0.21800
C965        C  0.40159534  0.57356943  0.95016148    -0.34400
C966        C  0.39709830  0.58946300  0.98955490     0.15900
O967        O  0.37431300  0.61747026  0.03383272    -0.26400
C968        C  0.39757340  0.61327127  0.05249359     0.05700
C969        C  0.41266671  0.59587682  0.02674811    -0.31300
O970        O  0.38175846  0.56001436  0.87651079    -0.23200
C971        C  0.35835491  0.56452220  0.85841247    -0.03100
C972        C  0.34238905  0.57904511  0.88777559    -0.17600
H973        H  0.33524697  0.61068472  0.96948662     0.20400
H974        H  0.42004250  0.56400097  0.94424328     0.18800
H975        H  0.43219207  0.58923309  0.03408336     0.18700
H976        H  0.32336083  0.58695097  0.88009936     0.14600
C977        C  0.39988917  0.60687848  0.50249774     0.30000
C978        C  0.41876049  0.62088592  0.47669853    -0.36300
C979        C  0.41509205  0.62206157  0.42743754     0.16000
C980        C  0.39449011  0.60990493  0.40556747     0.21800
C981        C  0.37573469  0.59611419  0.43114614    -0.34400
C982        C  0.37918311  0.59526652  0.48000384     0.15900
O983        O  0.39844773  0.60436731  0.54894841    -0.26400
C984        C  0.37643930  0.59119397  0.55580415     0.05700
C985        C  0.36370998  0.58507648  0.51417341    -0.31300
O986        O  0.39464245  0.61306522  0.35957825    -0.23200
C987        C  0.41545322  0.62764947  0.35121372    -0.03100
C988        C  0.42901491  0.63404895  0.39216379    -0.17600
H989        H  0.43483552  0.63056015  0.49385744     0.20400
H990        H  0.35929549  0.58701057  0.41409307     0.18800
H991        H  0.34519566  0.57540565  0.50989949     0.18700
H992        H  0.44665343  0.64535674  0.39532779     0.14600
C993        C  0.29818131  0.61066017  0.21705233     0.30000
C994        C  0.28037894  0.58997822  0.22066594    -0.36300
C995        C  0.25645787  0.59592448  0.24179826     0.16000
C996        C  0.25062825  0.62047217  0.25874677     0.21800
C997        C  0.26817533  0.64130242  0.25403807    -0.34400
C998        C  0.29198565  0.63542417  0.23247308     0.15900
O999        O  0.32225114  0.60903557  0.20149805    -0.26400
C1000       C  0.33153199  0.63313453  0.20642331     0.05700
C1001       C  0.31347271  0.65046525  0.22512914    -0.31300
O1002       O  0.22803250  0.62120961  0.28061727    -0.23200
C1003       C  0.21900836  0.59695136  0.27691571    -0.03100
C1004       C  0.23578644  0.58038403  0.25277779    -0.17600
H1005       H  0.28514002  0.57043629  0.20905891     0.20400
H1006       H  0.26386124  0.66057062  0.26753618     0.18800
H1007       H  0.31620833  0.67080489  0.23410767     0.18700
H1008       H  0.23360608  0.55967650  0.24635798     0.14600
C1009       C  0.37706742  0.77142564  0.27270228     0.30000
C1010       C  0.35645626  0.78929679  0.27354655    -0.36300
C1011       C  0.36149411  0.81311702  0.29579325     0.16000
C1012       C  0.38529395  0.81897522  0.31536315     0.21800
C1013       C  0.40573956  0.80090725  0.31534166    -0.34400
C1014       C  0.40061784  0.77698332  0.29351635     0.15900
O1015       O  0.37716575  0.74880256  0.25092567    -0.26400
C1016       C  0.40092360  0.73955928  0.25843307     0.05700
C1017       C  0.41637527  0.75614613  0.28503896    -0.31300
O1018       O  0.38637351  0.84303284  0.33125374    -0.23200
C1019       C  0.36288879  0.85259805  0.32237145    -0.03100
C1020       C  0.34646657  0.83484520  0.30059619    -0.17600
H1021       H  0.33803888  0.78519649  0.25682407     0.20400
H1022       H  0.42454785  0.80547795  0.33012956     0.18800
H1023       H  0.43660294  0.75382779  0.29441173     0.18700
H1024       H  0.32682774  0.83791098  0.28826281     0.14600
C1025       C  0.52413312  0.94537662  0.80363091     0.30000
C1026       C  0.53038009  0.97194409  0.80424394    -0.36300
C1027       C  0.55239762  0.97933640  0.77853217     0.16000
C1028       C  0.56791207  0.96192113  0.75446392     0.21800
C1029       C  0.56159716  0.93505616  0.75384680    -0.34400
C1030       C  0.53904966  0.92761351  0.77908792     0.15900
O1031       O  0.50301164  0.93497392  0.82192422    -0.26400
C1032       C  0.50401193  0.91003786  0.80922031     0.05700
C1033       C  0.52611256  0.90425020  0.78250371    -0.31300
O1034       O  0.58755936  0.97371424  0.73245708    -0.23200
C1035       C  0.58397190  0.99899854  0.74208285    -0.03100
C1036       C  0.56241102  0.00337356  0.77056665    -0.17600
H1037       H  0.51832697  0.98607447  0.82220382     0.20400
H1038       H  0.57297135  0.92110277  0.73405642     0.18800
H1039       H  0.53097138  0.88602207  0.76541331     0.18700
H1040       H  0.55526023  0.02179087  0.78396432     0.14600
C1041       C  0.38751906  0.68881091  0.73603024     0.30000
C1042       C  0.40866760  0.70583000  0.74074222    -0.36300
C1043       C  0.40261316  0.73187414  0.75122540     0.16000
C1044       C  0.37749690  0.74052410  0.75755883     0.21800
C1045       C  0.35628558  0.72355752  0.75214674    -0.34400
C1046       C  0.36232668  0.69757314  0.74078781     0.15900
O1047       O  0.38879416  0.66368194  0.72636240    -0.26400
C1048       C  0.36410062  0.65628526  0.72406880     0.05700
C1049       C  0.34672969  0.67655146  0.73256792    -0.31300
O1050       O  0.37645858  0.76530114  0.77022282    -0.23200
C1051       C  0.40122312  0.77271709  0.77127979    -0.03100
C1052       C  0.41831817  0.75273383  0.75944888    -0.17600
H1053       H  0.42847838  0.69918736  0.73678255     0.20400
H1054       H  0.33649191  0.73010481  0.75681380     0.18800
H1055       H  0.32574904  0.67582314  0.73282268     0.18700
H1056       H  0.43930920  0.75316258  0.75942165     0.14600
C1057       C  0.47624772  0.74658657  0.05526107     0.30000
C1058       C  0.47886761  0.77300177  0.04179013    -0.36300
C1059       C  0.47639510  0.77858329  0.99319201     0.16000
C1060       C  0.47190254  0.75940140  0.96011445     0.21800
C1061       C  0.46987019  0.73304395  0.97339565    -0.34400
C1062       C  0.47208223  0.72752592  0.02183344     0.15900
O1063       O  0.47303131  0.73768242  0.09893901    -0.26400
C1064       C  0.46691803  0.71255353  0.09343505     0.05700
C1065       C  0.46616225  0.70530297  0.04612039    -0.31300
O1066       O  0.46600119  0.76906456  0.91817459    -0.23200
C1067       C  0.46709737  0.79482319  0.92382486    -0.03100
C1068       C  0.47340289  0.80188674  0.96989394    -0.17600
H1069       H  0.48051699  0.78836385  0.06774629     0.20400
H1070       H  0.46470902  0.71811636  0.94814521     0.18800
H1071       H  0.45897678  0.68716586  0.03162864     0.18700
H1072       H  0.47294318  0.82123217  0.98513091     0.14600
C1073       C  0.26120054  0.92717949  0.78021001     0.30000
C1074       C  0.28665772  0.93504586  0.79073727    -0.36300
C1075       C  0.30470909  0.91493880  0.79887582     0.16000
C1076       C  0.29809335  0.88883510  0.79803500     0.21800
C1077       C  0.27261221  0.88096672  0.78758088    -0.34400
C1078       C  0.25469138  0.90106828  0.77831381     0.15900
O1079       O  0.24172283  0.94264865  0.76815259    -0.26400
C1080       C  0.22247753  0.92625595  0.75797545     0.05700
C1081       C  0.22949719  0.90013943  0.76368985    -0.31300
O1082       O  0.31820421  0.87332309  0.80583007    -0.23200
C1083       C  0.33808481  0.88970646  0.81081617    -0.03100
C1084       C  0.33077069  0.91582053  0.80687818    -0.17600
H1085       H  0.29221739  0.95543422  0.79099243     0.20400
H1086       H  0.26730460  0.86055031  0.78538845     0.18800
H1087       H  0.21797377  0.88295232  0.75642243     0.18700
H1088       H  0.34294975  0.93296703  0.80955053     0.14600
C1089       C  0.40946126  0.91834727  0.53119495     0.30000
C1090       C  0.42294441  0.92623693  0.57167630    -0.36300
C1091       C  0.42697275  0.90682735  0.60606362     0.16000
C1092       C  0.41909908  0.88123883  0.60029916     0.21800
C1093       C  0.40597876  0.87331513  0.55968376    -0.34400
C1094       C  0.40114656  0.89285621  0.52624224     0.15900
O1095       O  0.40125241  0.93365025  0.49662411    -0.26400
C1096       C  0.38711777  0.91769123  0.47018138     0.05700
C1097       C  0.38645387  0.89218397  0.48677281    -0.31300
O1098       O  0.42242638  0.86696190  0.63858316    -0.23200
C1099       C  0.43221004  0.88365568  0.66951313    -0.03100
C1100       C  0.43560468  0.90870030  0.65127171    -0.17600
H1101       H  0.42844615  0.94638567  0.57727415     0.20400
H1102       H  0.39853258  0.85367254  0.55584315     0.18800
H1103       H  0.37613305  0.87566203  0.47221410     0.18700
H1104       H  0.44190245  0.92607498  0.66963402     0.14600
C1105       C  0.39422755  0.92231200  0.02863378     0.30000
C1106       C  0.38505784  0.94364427  0.05521348    -0.36300
C1107       C  0.37855663  0.93822923  0.10260858     0.16000
C1108       C  0.38139976  0.91363095  0.12209344     0.21800
C1109       C  0.39053024  0.89254461  0.09583392    -0.34400
C1110       C  0.39668197  0.89785864  0.04883331     0.15900
O1111       O  0.39975930  0.92215078  0.98298725    -0.26400
C1112       C  0.40568747  0.89725168  0.97441310     0.05700
C1113       C  0.40422453  0.88140788  0.01419119    -0.31300
O1114       O  0.37501443  0.91270512  0.16685507    -0.23200
C1115       C  0.36759062  0.93688310  0.17674426    -0.03100
C1116       C  0.36921837  0.95379641  0.13810421    -0.17600
H1117       H  0.38270416  0.96290013  0.03984796     0.20400
H1118       H  0.39240542  0.87317330  0.11096310     0.18800
H1119       H  0.40696584  0.86047500  0.01664252     0.18700
H1120       H  0.36525286  0.97455063  0.13693837     0.14600
loop_ 
_geom_bond_atom_site_label_1 
_geom_bond_atom_site_label_2 
_geom_bond_distance 
_geom_bond_site_symmetry_2 
_ccdc_geom_bond_type 
Fe1          O17   2.077       .  S
Fe1           O7   2.058       .  S
Fe1          O14   2.069       .  S
Fe1           O6   2.078       .  S
Fe1          O12   1.965       .  S
Fe2           O5   2.086       .  S
Fe2           O9   2.051       .  S
Fe2          O13   2.085       .  S
Fe2          O18   2.059       .  S
Fe2          O12   1.954       .  S
Fe3          O21   2.082       .  S
Fe3           O8   2.087       .  S
Fe3          O15   2.093       .  S
Fe3           O4   2.064       .  S
Fe3          O12   1.970       .  S
O4           C11   1.274       .  A
O5           C19   1.275       .  A
O6           C11   1.275       .  A
O7           C10   1.266       .  A
O8           C20   1.270       .  A
O9           C22   1.269       .  A
C10          O15   1.270       .  A
C10        C1032   1.480       .  S
C11        C1099   1.461       .  S
O13          C16   1.271       .  A
O14          C16   1.270       .  A
C16        C1083   1.480       .  S
O17          C22   1.270       .  A
O18          C20   1.264       .  A
C19          O21   1.276       .  A
C19        C1067   1.473       .  S
C20        C1051   1.474       .  S
C22        C1112   1.467       .  S
Fe23         O39   2.065       .  S
Fe23         O29   2.052       .  S
Fe23         O36   2.081       .  S
Fe23         O28   2.045       .  S
Fe23         O34   1.956       .  S
Fe24         O27   2.057       .  S
Fe24         O31   2.067       .  S
Fe24         O35   2.064       .  S
Fe24         O40   2.042       .  S
Fe24         O34   1.957       .  S
Fe25         O43   2.117       .  S
Fe25         O30   2.069       .  S
Fe25         O37   2.089       .  S
Fe25         O26   2.109       .  S
Fe25         O34   1.980       .  S
O26          C33   1.282       .  A
O27          C41   1.273       .  A
O28          C33   1.272       .  A
O29          C32   1.264       .  A
O30          C42   1.265       .  A
O31          C44   1.269       .  A
C32          O37   1.269       .  A
C32         C955   1.485       .  S
C33         C987   1.470       .  S
O35          C38   1.266       .  A
O36          C38   1.267       .  A
C38        C1000   1.473       .  S
O39          C44   1.269       .  A
O40          C42   1.260       .  A
C41          O43   1.284       .  A
C41        C1064   1.478       .  S
C42        C1016   1.464       .  S
C44         C968   1.460       .  S
Fe45         O61   2.058       .  S
Fe45         O51   2.078       .  S
Fe45         O58   2.082       .  S
Fe45         O50   2.050       .  S
Fe45         O56   1.959       .  S
Fe46         O49   2.053       .  S
Fe46         O53   2.079       .  S
Fe46         O57   2.055       .  S
Fe46         O62   2.085       .  S
Fe46         O56   1.944       .  S
Fe47         O65   2.089       .  S
Fe47         O52   2.073       .  S
Fe47         O59   2.065       .  S
Fe47         O48   2.093       .  S
Fe47         O56   1.965       .  S
O48          C55   1.270       .  A
O49          C63   1.263       .  A
O50          C55   1.265       .  A
O51          C54   1.273       .  A
O52          C64   1.275       .  A
O53          C66   1.271       .  A
C54          O59   1.274       .  A
C54         C971   1.460       .  S
C55         C904   1.470       .  S
O57          C60   1.269       .  A
O58          C60   1.271       .  A
C60         C984   1.467       .  S
O61          C66   1.267       .  A
O62          C64   1.276       .  A
C63          O65   1.269       .  A
C63         C923   1.470       .  S
C64         C939   1.468       .  S
C66        C1048   1.469       .  S
Fe67         O83   2.076       .  S
Fe67         O73   2.033       .  S
Fe67         O80   2.051       .  S
Fe67         O72   2.055       .  S
Fe67         O78   1.943       .  S
Fe68         O71   2.067       .  S
Fe68         O75   2.066       .  S
Fe68         O79   2.092       .  S
Fe68         O84   2.058       .  S
Fe68         O78   1.941       .  S
Fe69         O87   2.072       .  S
Fe69         O74   2.108       .  S
Fe69         O81   2.116       .  S
Fe69         O70   2.089       .  S
Fe69         O78   1.959       .  S
O70          C77   1.268       .  A
O71          C85   1.267       .  A
O72          C77   1.263       .  A
O73          C76   1.271       .  A
O74          C86   1.281       .  A
O75          C88   1.264       .  A
C76          O81   1.284       .  A
C76         C875   1.462       .  S
C77         C843   1.480       .  S
O79          C82   1.276       .  A
O80          C82   1.269       .  A
C82         C856   1.456       .  S
O83          C88   1.264       .  A
O84          C86   1.272       .  A
C85          O87   1.269       .  A
C85        C1003   1.472       .  S
C86         C936   1.472       .  S
C88         C888   1.465       .  S
Fe89        O105   2.057       .  S
Fe89         O95   2.054       .  S
Fe89        O102   2.082       .  S
Fe89         O94   2.026       .  S
Fe89        O100   1.945       .  S
Fe90         O93   2.049       .  S
Fe90         O97   2.075       .  S
Fe90        O101   2.059       .  S
Fe90        O106   2.056       .  S
Fe90        O100   1.940       .  S
Fe91        O109   2.115       .  S
Fe91         O96   2.068       .  S
Fe91        O103   2.087   1_455  S
Fe91         O92   2.116       .  S
Fe91        O100   1.963       .  S
O92          C99   1.282       .  A
O93         C107   1.271       .  A
O94          C99   1.270       .  A
O95          C98   1.264       .  A
O96         C108   1.267       .  A
O97         C110   1.272       .  A
C98         O103   1.269   1_455  A
C98         C763   1.473   1_455  S
C99         C808   1.464       .  S
O101        C104   1.264       .  A
O102        C104   1.267       .  A
C104        C779   1.466       .  S
O105        C110   1.269       .  A
O106        C108   1.264       .  A
C107        O109   1.282       .  A
C107        C795   1.473       .  S
C108        C891   1.467       .  S
C110        C824   1.456       .  S
Fe111       O127   2.083       .  S
Fe111       O117   2.050       .  S
Fe111       O124   2.054       .  S
Fe111       O116   2.085       .  S
Fe111       O122   1.955       .  S
Fe112       O115   2.086       .  S
Fe112       O119   2.051       .  S
Fe112       O123   2.078       .  S
Fe112       O128   2.057       .  S
Fe112       O122   1.948       .  S
Fe113       O131   2.080       .  S
Fe113       O118   2.090       .  S
Fe113       O125   2.098   1_455  S
Fe113       O114   2.061       .  S
Fe113       O122   1.962       .  S
O114        C121   1.275       .  A
O115        C129   1.276       .  A
O116        C121   1.276       .  A
O117        C120   1.264   1_455  A
O118        C130   1.270       .  A
O119        C132   1.270       .  A
C120        O125   1.269       .  A
C120        C731   1.480       .  S
C121        C859   1.463       .  S
O123        C126   1.269       .  A
O124        C126   1.266       .  A
C126        C920   1.471       .  S
O127        C132   1.273       .  A
O128        C130   1.263       .  A
C129        O131   1.277       .  A
C129        C792   1.471       .  S
C130        C747   1.471       .  S
C132        C872   1.468       .  S
Fe133       O149   2.071       .  S
Fe133       O139   2.032       .  S
Fe133       O146   2.053       .  S
Fe133       O138   2.044       .  S
Fe133       O144   1.943       .  S
Fe134       O137   2.055       .  S
Fe134       O141   2.063       .  S
Fe134       O145   2.078       .  S
Fe134       O150   2.057       .  S
Fe134       O144   1.943       .  S
Fe135       O153   2.068       .  S
Fe135       O140   2.116       .  S
Fe135       O147   2.119       .  S
Fe135       O136   2.093       .  S
Fe135       O144   1.964       .  S
O136        C143   1.269       .  A
O137        C151   1.264       .  A
O138        C143   1.263       .  A
O139        C142   1.270       .  A
O140        C152   1.283       .  A
O141        C154   1.265       .  A
C142        O147   1.283       .  A
C142       C1115   1.465       .  S
C143        C696   1.479   1_565  S
O145        C148   1.273       .  A
O146        C148   1.268       .  A
C148       C1096   1.457       .  S
O149        C154   1.264       .  A
O150        C152   1.272       .  A
C151        O153   1.268       .  A
C151        C776   1.465       .  S
C152        C715   1.475       .  S
C154       C1019   1.462       .  S
Fe155       O171   2.064       .  S
Fe155       O161   2.073       .  S
Fe155       O168   2.072       .  S
Fe155       O160   2.051       .  S
Fe155       O166   1.969       .  S
Fe156       O159   2.060       .  S
Fe156       O163   2.072       .  S
Fe156       O167   2.049       .  S
Fe156       O172   2.075       .  S
Fe156       O166   1.954       .  S
Fe157       O175   2.098       .  S
Fe157       O162   2.085       .  S
Fe157       O169   2.065       .  S
Fe157       O158   2.100   1_565  S
Fe157       O166   1.970       .  S
O158        C165   1.272       .  A
O159        C173   1.265       .  A
O160        C165   1.265   1_565  A
O161        C164   1.272       .  A
O162        C174   1.276       .  A
O163        C176   1.269       .  A
C164        O169   1.274       .  A
C164        C827   1.459       .  S
C165        C683   1.479       .  S
O167        C170   1.268       .  A
O168        C170   1.270       .  A
C170        C811   1.461       .  S
O171        C176   1.268       .  A
O172        C174   1.272       .  A
C173        O175   1.271       .  A
C173       C1080   1.480       .  S
C174        C712   1.472       .  S
C176        C744   1.472       .  S
Fe177       O193   2.054       .  S
Fe177       O183   2.053       .  S
Fe177       O190   2.078       .  S
Fe177       O182   2.030       .  S
Fe177       O188   1.947       .  S
Fe178       O181   2.056       .  S
Fe178       O185   2.076       .  S
Fe178       O189   2.067       .  S
Fe178       O194   2.054       .  S
Fe178       O188   1.940       .  S
Fe179       O197   2.099       .  S
Fe179       O184   2.074       .  S
Fe179       O191   2.092       .  S
Fe179       O180   2.103       .  S
Fe179       O188   1.961       .  S
O180        C187   1.281       .  A
O181        C195   1.272       .  A
O182        C187   1.272       .  A
O183        C186   1.263       .  A
O184        C196   1.268       .  A
O185        C198   1.274       .  A
C186        O191   1.269       .  A
C186        C952   1.480       .  S
C187        C651   1.458       .  S
O189        C192   1.264       .  A
O190        C192   1.265       .  A
C192        C635   1.468       .  S
O193        C198   1.270       .  A
O194        C196   1.264       .  A
C195        O197   1.280       .  A
C195        C619   1.467       .  S
C196        C600   1.467       .  S
C198        C664   1.455       .  S
Fe199       O215   2.059       .  S
Fe199       O205   2.054       .  S
Fe199       O212   2.077       .  S
Fe199       O204   2.033       .  S
Fe199       O210   1.954       .  S
Fe200       O203   2.062       .  S
Fe200       O207   2.070       .  S
Fe200       O211   2.069       .  S
Fe200       O216   2.055       .  S
Fe200       O210   1.948       .  S
Fe201       O219   2.097       .  S
Fe201       O206   2.077       .  S
Fe201       O213   2.087       .  S
Fe201       O202   2.106       .  S
Fe201       O210   1.970       .  S
O202        C209   1.282       .  A
O203        C217   1.274       .  A
O204        C209   1.272       .  A
O205        C208   1.263       .  A
O206        C218   1.266       .  A
O207        C220   1.271       .  A
C208        O213   1.268       .  A
C208        C728   1.479       .  S
C209        C555   1.462       .  S
O211        C214   1.267       .  A
O212        C214   1.266       .  A
C214        C568   1.470       .  S
O215        C220   1.269       .  A
O216        C218   1.263       .  A
C217        O219   1.281       .  A
C217        C616   1.467       .  S
C218        C587   1.472       .  S
C220        C539   1.459       .  S
Fe221       O237   2.065       .  S
Fe221       O227   2.075       .  S
Fe221       O234   2.072       .  S
Fe221       O226   2.056       .  S
Fe221       O232   1.961       .  S
Fe222       O225   2.054       .  S
Fe222       O229   2.071       .  S
Fe222       O233   2.048       .  S
Fe222       O238   2.084       .  S
Fe222       O232   1.944       .  S
Fe223       O241   2.084       .  S
Fe223       O228   2.077       .  S
Fe223       O235   2.061       .  S
Fe223       O224   2.089       .  S
Fe223       O232   1.963       .  S
O224        C231   1.269       .  A
O225        C239   1.262       .  A
O226        C231   1.265       .  A
O227        C230   1.274       .  A
O228        C240   1.277       .  A
O229        C242   1.269       .  A
C230        O235   1.274       .  A
C230        C536   1.456       .  S
C231        C840   1.477   1_655  S
O233        C236   1.268       .  A
O234        C236   1.271       .  A
C236        C552   1.460       .  S
O237        C242   1.268       .  A
O238        C240   1.276       .  A
C239        O241   1.267       .  A
C239        C504   1.469       .  S
C240        C523   1.468       .  S
C242        C603   1.470       .  S
Fe243       O259   2.076       .  S
Fe243       O249   2.029       .  S
Fe243       O256   2.050       .  S
Fe243       O248   2.054       .  S
Fe243       O254   1.944       .  S
Fe244       O247   2.064       .  S
Fe244       O251   2.066       .  S
Fe244       O255   2.089       .  S
Fe244       O260   2.055       .  S
Fe244       O254   1.940       .  S
Fe245       O263   2.065       .  S
Fe245       O250   2.105       .  S
Fe245       O257   2.109       .  S
Fe245       O246   2.086       .  S
Fe245       O254   1.962       .  S
O246        C253   1.268       .  A
O247        C261   1.266       .  A
O248        C253   1.264       .  A
O249        C252   1.271       .  A
O250        C262   1.281       .  A
O251        C264   1.265       .  A
C252        O257   1.282       .  A
C252        C475   1.459       .  S
C253        C680   1.480       .  S
O255        C258   1.276       .  A
O256        C258   1.269       .  A
C258        C456   1.455       .  S
O259        C264   1.264       .  A
O260        C262   1.273       .  A
C261        O263   1.267       .  A
C261        C571   1.468       .  S
C262        C520   1.471       .  S
C264        C488   1.467       .  S
Fe265       O281   2.065       .  S
Fe265       O271   2.049       .  S
Fe265       O278   2.069       .  S
Fe265       O270   2.039       .  S
Fe265       O276   1.949       .  S
Fe266       O269   2.062       .  S
Fe266       O273   2.079       .  S
Fe266       O277   2.073       .  S
Fe266       O282   2.058       .  S
Fe266       O276   1.953       .  S
Fe267       O285   2.102       .  S
Fe267       O272   2.070       .  S
Fe267       O279   2.097       .  S
Fe267       O268   2.106       .  S
Fe267       O276   1.974       .  S
O268        C275   1.281       .  A
O269        C283   1.273       .  A
O270        C275   1.273       .  A
O271        C274   1.262       .  A
O272        C284   1.268       .  A
O273        C286   1.274       .  A
C274        O279   1.269       .  A
C274       C1035   1.484   1_545  S
C275        C424   1.461       .  S
O277        C280   1.265       .  A
O278        C280   1.265       .  A
C280        C395   1.474       .  S
O281        C286   1.272       .  A
O282        C284   1.265       .  A
C283        O285   1.280       .  A
C283        C408   1.473       .  S
C284        C491   1.469       .  S
C286        C443   1.462       .  S
Fe287       O303   2.070       .  S
Fe287       O293   2.055       .  S
Fe287       O300   2.062       .  S
Fe287       O292   2.069       .  S
Fe287       O298   1.955       .  S
Fe288       O291   2.082       .  S
Fe288       O295   2.048       .  S
Fe288       O299   2.070       .  S
Fe288       O304   2.050       .  S
Fe288       O298   1.948       .  S
Fe289       O307   2.084       .  S
Fe289       O294   2.079       .  S
Fe289       O301   2.086       .  S
Fe289       O290   2.070       .  S
Fe289       O298   1.965       .  S
O290        C297   1.275       .  A
O291        C305   1.275       .  A
O292        C297   1.274       .  A
O293        C296   1.266       .  A
O294        C306   1.267       .  A
O295        C308   1.267       .  A
C296        O301   1.268       .  A
C296        C760   1.476   1_545  S
C297        C459   1.465       .  S
O299        C302   1.268       .  A
O300        C302   1.268       .  A
C302        C507   1.469       .  S
O303        C308   1.270       .  A
O304        C306   1.262       .  A
C305        O307   1.277       .  A
C305        C411   1.471       .  S
C306        C379   1.464       .  S
C308        C472   1.460       .  S
Fe309       O325   2.066       .  S
Fe309       O315   2.074       .  S
Fe309       O322   2.068       .  S
Fe309       O314   2.050       .  S
Fe309       O320   1.965       .  S
Fe310       O313   2.054       .  S
Fe310       O317   2.077       .  S
Fe310       O321   2.041       .  S
Fe310       O326   2.086       .  S
Fe310       O320   1.946       .  S
Fe311       O329   2.088       .  S
Fe311       O316   2.083       .  S
Fe311       O323   2.063       .  S
Fe311       O312   2.091       .  S
Fe311       O320   1.961       .  S
O312        C319   1.269       .  A
O313        C327   1.263       .  A
O314        C319   1.265       .  A
O315        C318   1.272       .  A
O316        C328   1.277       .  A
O317        C330   1.270       .  A
C318        O323   1.275       .  A
C318        C667   1.456       .  S
C319        C907   1.474       .  S
O321        C324   1.266       .  A
O322        C324   1.269       .  A
C324        C648   1.454       .  S
O325        C330   1.268       .  A
O326        C328   1.276       .  A
C327        O329   1.269       .  A
C327        C392   1.472       .  S
C328        C363   1.473       .  S
C330        C584   1.474       .  S
Fe331       O347   2.063       .  S
Fe331       O337   2.073       .  S
Fe331       O344   2.078       .  S
Fe331       O336   2.050       .  S
Fe331       O342   1.974       .  S
Fe332       O335   2.044       .  S
Fe332       O339   2.061       .  S
Fe332       O343   2.044       .  S
Fe332       O348   2.067       .  S
Fe332       O342   1.961       .  S
Fe333       O351   2.081       .  S
Fe333       O338   2.094       .  S
Fe333       O345   2.069       .  S
Fe333       O334   2.094       .  S
Fe333       O342   1.979       .  S
O334        C341   1.271       .  A
O335        C349   1.261       .  A
O336        C341   1.266       .  A
O337        C340   1.272       .  A
O338        C350   1.278       .  A
O339        C352   1.267       .  A
C340        O345   1.273       .  A
C340        C440   1.466       .  S
C341        C699   1.476       .  S
O343        C346   1.265       .  A
O344        C346   1.269       .  A
C346        C427   1.466       .  S
O347        C352   1.269       .  A
O348        C350   1.272       .  A
C349        O351   1.268       .  A
C349        C632   1.469       .  S
C350        C360   1.473       .  S
C352        C376   1.465       .  S
C353        C358   1.380       .  A
C353        C354   1.402   1_554  A
C353        O359   1.318       .  A
C354        C355   1.401       .  A
C354        H365   1.082       .  S
C355        C364   1.360       .  A
C355        C356   1.379       .  A
C356        C357   1.412   1_556  A
C356        O362   1.326       .  A
C357        C358   1.411       .  A
C357        H366   1.082       .  S
C358        C361   1.372       .  A
O359        C360   1.330       .  A
C360        C361   1.396       .  A
C361        H367   1.082       .  S
O362        C363   1.335       .  A
C363        C364   1.389       .  A
C364        H368   1.083       .  S
C369        C374   1.381       .  A
C369        C370   1.403       .  A
C369        O375   1.318       .  A
C370        C371   1.402       .  A
C370        H381   1.083       .  S
C371        C380   1.362       .  A
C371        C372   1.381       .  A
C372        C373   1.400       .  A
C372        O378   1.315       .  A
C373        C374   1.399       .  A
C373        H382   1.083       .  S
C374        C377   1.359       .  A
O375        C376   1.331       .  A
C376        C377   1.389       .  A
C377        H383   1.083       .  S
O378        C379   1.329       .  A
C379        C380   1.392       .  A
C380        H384   1.083       .  S
C385        C390   1.381       .  A
C385        C386   1.401       .  A
C385        O391   1.318       .  A
C386        C387   1.401       .  A
C386        H397   1.083       .  S
C387        C396   1.357       .  A
C387        C388   1.380       .  A
C388        C389   1.406       .  A
C388        O394   1.324       .  A
C389        C390   1.407       .  A
C389        H398   1.083       .  S
C390        C393   1.364       .  A
O391        C392   1.330       .  A
C392        C393   1.394       .  A
C393        H399   1.083       .  S
O394        C395   1.333       .  A
C395        C396   1.391       .  A
C396        H400   1.083       .  S
C401        C406   1.380       .  A
C401        C402   1.404       .  A
C401        O407   1.320       .  A
C402        C403   1.403       .  A
C402        H413   1.082       .  S
C403        C412   1.362       .  A
C403        C404   1.380       .  A
C404        C405   1.408       .  A
C404        O410   1.324       .  A
C405        C406   1.408       .  A
C405        H414   1.082       .  S
C406        C409   1.368       .  A
O407        C408   1.331       .  A
C408        C409   1.393       .  A
C409        H415   1.082       .  S
O410        C411   1.333       .  A
C411        C412   1.390       .  A
C412        H416   1.083       .  S
C417        C422   1.381       .  A
C417        C418   1.408       .  A
C417        O423   1.323       .  A
C418        C419   1.408   1_556  A
C418        H429   1.082       .  S
C419        C428   1.368       .  A
C419        C420   1.381   1_554  A
C420        C421   1.395       .  A
C420        O426   1.311   1_556  A
C421        C422   1.394       .  A
C421        H430   1.083       .  S
C422        C425   1.351       .  A
O423        C424   1.332       .  A
C424        C425   1.386       .  A
C425        H431   1.083       .  S
O426        C427   1.327       .  A
C427        C428   1.395       .  A
C428        H432   1.082       .  S
C433        C438   1.382       .  A
C433        C434   1.398       .  A
C433        O439   1.317       .  A
C434        C435   1.399       .  A
C434        H445   1.083       .  S
C435        C444   1.354       .  A
C435        C436   1.382       .  A
C436        C437   1.404       .  A
C436        O442   1.322       .  A
C437        C438   1.405       .  A
C437        H446   1.083       .  S
C438        C441   1.361       .  A
O439        C440   1.328       .  A
C440        C441   1.393       .  A
C441        H447   1.083       .  S
O442        C443   1.330       .  A
C443        C444   1.388       .  A
C444        H448   1.083       .  S
C449        C454   1.382       .  A
C449        C450   1.400       .  A
C449        O455   1.320       .  A
C450        C451   1.401       .  A
C450        H461   1.083       .  S
C451        C460   1.355       .  A
C451        C452   1.382       .  A
C452        C453   1.400       .  A
C452        O458   1.319       .  A
C453        C454   1.400       .  A
C453        H462   1.083       .  S
C454        C457   1.355   1_554  A
O455        C456   1.328   1_554  A
C456        C457   1.387       .  A
C457        H463   1.083       .  S
O458        C459   1.329       .  A
C459        C460   1.391       .  A
C460        H464   1.083       .  S
C465        C470   1.381       .  A
C465        C466   1.395       .  A
C465        O471   1.312       .  A
C466        C467   1.395       .  A
C466        H477   1.083       .  S
C467        C476   1.350       .  A
C467        C468   1.381       .  A
C468        C469   1.404       .  A
C468        O474   1.321       .  A
C469        C470   1.404       .  A
C469        H478   1.083       .  S
C470        C473   1.362       .  A
O471        C472   1.327       .  A
C472        C473   1.392       .  A
C473        H479   1.083       .  S
O474        C475   1.330       .  A
C475        C476   1.387       .  A
C476        H480   1.083       .  S
C481        C486   1.380       .  A
C481        C482   1.404       .  A
C481        O487   1.317       .  A
C482        C483   1.402       .  A
C482        H493   1.083       .  S
C483        C492   1.364       .  A
C483        C484   1.380       .  A
C484        C485   1.403       .  A
C484        O490   1.317       .  A
C485        C486   1.401       .  A
C485        H494   1.083       .  S
C486        C489   1.363       .  A
O487        C488   1.331       .  A
C488        C489   1.390       .  A
C489        H495   1.083       .  S
O490        C491   1.330       .  A
C491        C492   1.392       .  A
C492        H496   1.083       .  S
C497        C502   1.381       .  A
C497        C498   1.403       .  A
C497        O503   1.318       .  A
C498        C499   1.402       .  A
C498        H509   1.083       .  S
C499        C508   1.361       .  A
C499        C500   1.380       .  A
C500        C501   1.403       .  A
C500        O506   1.319       .  A
C501        C502   1.403       .  A
C501        H510   1.083       .  S
C502        C505   1.362       .  A
O503        C504   1.330       .  A
C504        C505   1.392       .  A
C505        H511   1.083       .  S
O506        C507   1.331       .  A
C507        C508   1.391       .  A
C508        H512   1.083       .  S
C513        C518   1.380   1_556  A
C513        C514   1.407       .  A
C513        O519   1.322       .  A
C514        C515   1.406   1_556  A
C514        H525   1.082       .  S
C515        C524   1.366       .  A
C515        C516   1.380       .  A
C516        C517   1.404       .  A
C516        O522   1.320       .  A
C517        C518   1.403       .  A
C517        H526   1.082       .  S
C518        C521   1.362   1_554  A
O519        C520   1.333       .  A
C520        C521   1.391       .  A
C521        H527   1.083   1_556  S
O522        C523   1.331       .  A
C523        C524   1.392       .  A
C524        H528   1.082       .  S
C529        C534   1.382       .  A
C529        C530   1.397       .  A
C529        O535   1.315       .  A
C530        C531   1.397       .  A
C530        H541   1.083       .  S
C531        C540   1.351       .  A
C531        C532   1.382       .  A
C532        C533   1.401       .  A
C532        O538   1.320       .  A
C533        C534   1.402       .  A
C533        H542   1.083       .  S
C534        C537   1.358       .  A
O535        C536   1.326       .  A
C536        C537   1.390       .  A
C537        H543   1.083       .  S
O538        C539   1.329       .  A
C539        C540   1.388       .  A
C540        H544   1.083       .  S
C545        C550   1.382       .  A
C545        C546   1.394       .  A
C545        O551   1.312   1_556  A
C546        C547   1.394       .  A
C546        H557   1.083       .  S
C547        C556   1.349       .  A
C547        C548   1.381       .  A
C548        C549   1.406       .  A
C548        O554   1.323       .  A
C549        C550   1.406       .  A
C549        H558   1.083       .  S
C550        C553   1.364   1_556  A
O551        C552   1.326       .  A
C552        C553   1.393       .  A
C553        H559   1.083       .  S
O554        C555   1.331       .  A
C555        C556   1.387       .  A
C556        H560   1.083       .  S
C561        C566   1.380       .  A
C561        C562   1.404       .  A
C561        O567   1.317       .  A
C562        C563   1.403       .  A
C562        H573   1.083       .  S
C563        C572   1.364       .  A
C563        C564   1.381       .  A
C564        C565   1.403       .  A
C564        O570   1.317       .  A
C565        C566   1.402       .  A
C565        H574   1.082       .  S
C566        C569   1.364       .  A
O567        C568   1.332       .  A
C568        C569   1.390       .  A
C569        H575   1.082       .  S
O570        C571   1.330       .  A
C571        C572   1.392       .  A
C572        H576   1.083       .  S
C577        C582   1.380       .  A
C577        C578   1.403       .  A
C577        O583   1.319       .  A
C578        C579   1.402       .  A
C578        H589   1.083       .  S
C579        C588   1.361       .  A
C579        C580   1.380       .  A
C580        C581   1.407       .  A
C580        O586   1.323       .  A
C581        C582   1.407       .  A
C581        H590   1.083       .  S
C582        C585   1.365       .  A
O583        C584   1.330       .  A
C584        C585   1.394       .  A
C585        H591   1.083       .  S
O586        C587   1.333       .  A
C587        C588   1.390       .  A
C588        H592   1.083       .  S
C593        C598   1.380       .  A
C593        C594   1.404       .  A
C593        O599   1.318       .  A
C594        C595   1.402       .  A
C594        H605   1.082       .  S
C595        C604   1.362       .  A
C595        C596   1.380       .  A
C596        C597   1.405       .  A
C596        O602   1.320       .  A
C597        C598   1.404       .  A
C597        H606   1.082       .  S
C598        C601   1.364       .  A
O599        C600   1.331       .  A
C600        C601   1.391       .  A
C601        H607   1.082       .  S
O602        C603   1.331       .  A
C603        C604   1.391       .  A
C604        H608   1.082       .  S
C609        C614   1.380       .  A
C609        C610   1.404       .  A
C609        O615   1.320       .  A
C610        C611   1.404       .  A
C610        H621   1.082       .  S
C611        C620   1.363       .  A
C611        C612   1.380       .  A
C612        C613   1.405       .  A
C612        O618   1.320       .  A
C613        C614   1.404       .  A
C613        H622   1.082       .  S
C614        C617   1.363       .  A
O615        C616   1.331       .  A
C616        C617   1.390       .  A
C617        H623   1.083       .  S
O618        C619   1.331       .  A
C619        C620   1.391       .  A
C620        H624   1.083       .  S
C625        C630   1.380       .  A
C625        C626   1.405       .  A
C625        O631   1.317       .  A
C626        C627   1.403       .  A
C626        H637   1.082       .  S
C627        C636   1.365       .  A
C627        C628   1.380       .  A
C628        C629   1.403       .  A
C628        O634   1.316       .  A
C629        C630   1.401       .  A
C629        H638   1.082       .  S
C630        C633   1.363       .  A
O631        C632   1.332       .  A
C632        C633   1.390       .  A
C633        H639   1.082       .  S
O634        C635   1.330       .  A
C635        C636   1.392       .  A
C636        H640   1.083       .  S
C641        C646   1.382       .  A
C641        C642   1.393       .  A
C641        O647   1.309       .  A
C642        C643   1.393       .  A
C642        H653   1.083       .  S
C643        C652   1.348       .  A
C643        C644   1.381       .  A
C644        C645   1.404       .  A
C644        O650   1.320       .  A
C645        C646   1.404       .  A
C645        H654   1.082       .  S
C646        C649   1.363   1_554  A
O647        C648   1.325   1_554  A
C648        C649   1.391       .  A
C649        H655   1.083       .  S
O650        C651   1.330       .  A
C651        C652   1.387       .  A
C652        H656   1.083       .  S
C657        C662   1.381       .  A
C657        C658   1.394       .  A
C657        O663   1.308       .  A
C658        C659   1.392       .  A
C658        H669   1.083       .  S
C659        C668   1.353       .  A
C659        C660   1.381       .  A
C660        C661   1.406       .  A
C660        O666   1.318       .  A
C661        C662   1.404       .  A
C661        H670   1.083       .  S
C662        C665   1.367       .  A
O663        C664   1.325       .  A
C664        C665   1.392       .  A
C665        H671   1.083       .  S
O666        C667   1.332       .  A
C667        C668   1.384       .  A
C668        H672   1.083       .  S
C673        C678   1.379       .  A
C673        C674   1.412       .  A
C673        O679   1.330       .  A
C674        C675   1.413       .  A
C674        H685   1.083       .  S
C675        C684   1.373       .  A
C675        C676   1.380       .  A
C676        C677   1.398       .  A
C676        O682   1.316       .  A
C677        C678   1.398       .  A
C677        H686   1.083       .  S
C678        C681   1.352   1_455  A
O679        C680   1.336   1_455  A
C680        C681   1.390       .  A
C681        H687   1.083       .  S
O682        C683   1.330       .  A
C683        C684   1.398       .  A
C684        H688   1.082       .  S
C689        C694   1.379       .  A
C689        C690   1.413       .  A
C689        O695   1.331       .  A
C690        C691   1.414       .  A
C690        H701   1.083       .  S
C691        C700   1.373       .  A
C691        C692   1.380       .  A
C692        C693   1.396       .  A
C692        O698   1.314       .  A
C693        C694   1.396       .  A
C693        H702   1.083       .  S
C694        C697   1.349       .  A
O695        C696   1.336       .  A
C696        C697   1.390       .  A
C697        H703   1.083   1_545  S
O698        C699   1.328       .  A
C699        C700   1.398       .  A
C700        H704   1.082       .  S
C705        C710   1.379       .  A
C705        C706   1.409       .  A
C705        O711   1.324       .  A
C706        C707   1.409       .  A
C706        H717   1.082       .  S
C707        C716   1.369       .  A
C707        C708   1.380       .  A
C708        C709   1.404       .  A
C708        O714   1.320       .  A
C709        C710   1.404       .  A
C709        H718   1.082       .  S
C710        C713   1.363       .  A
O711        C712   1.334       .  A
C712        C713   1.390       .  A
C713        H719   1.083       .  S
O714        C715   1.332       .  A
C715        C716   1.394       .  A
C716        H720   1.082       .  S
C721        C726   1.379       .  A
C721        C722   1.400       .  A
C721        O727   1.315       .  A
C722        C723   1.399       .  A
C722        H733   1.083       .  S
C723        C732   1.357       .  A
C723        C724   1.379       .  A
C724        C725   1.413       .  A
C724        O730   1.328       .  A
C725        C726   1.413       .  A
C725        H734   1.083       .  S
C726        C729   1.375       .  A
O727        C728   1.330       .  A
C728        C729   1.398       .  A
C729        H735   1.082       .  S
O730        C731   1.337       .  A
C731        C732   1.391       .  A
C732        H736   1.083       .  S
C737        C742   1.380       .  A
C737        C738   1.402       .  A
C737        O743   1.318       .  A
C738        C739   1.401       .  A
C738        H749   1.083       .  S
C739        C748   1.360       .  A
C739        C740   1.380       .  A
C740        C741   1.406       .  A
C740        O746   1.322       .  A
C741        C742   1.406       .  A
C741        H750   1.083       .  S
C742        C745   1.365       .  A
O743        C744   1.330       .  A
C744        C745   1.393       .  A
C745        H751   1.083       .  S
O746        C747   1.333       .  A
C747        C748   1.390       .  A
C748        H752   1.083       .  S
C753        C758   1.379       .  A
C753        C754   1.414       .  A
C753        O759   1.325       .  A
C754        C755   1.412       .  A
C754        H765   1.083       .  S
C755        C764   1.376       .  A
C755        C756   1.380       .  A
C756        C757   1.398       .  A
C756        O762   1.311       .  A
C757        C758   1.396       .  A
C757        H766   1.083       .  S
C758        C761   1.356       .  A
O759        C760   1.337       .  A
C760        C761   1.389       .  A
C761        H767   1.083   1_565  S
O762        C763   1.328       .  A
C763        C764   1.397       .  A
C764        H768   1.082       .  S
C769        C774   1.381       .  A
C769        C770   1.403       .  A
C769        O775   1.317       .  A
C770        C771   1.401       .  A
C770        H781   1.083       .  S
C771        C780   1.363       .  A
C771        C772   1.381       .  A
C772        C773   1.402       .  A
C772        O778   1.316       .  A
C773        C774   1.401       .  A
C773        H782   1.083       .  S
C774        C777   1.362       .  A
O775        C776   1.331       .  A
C776        C777   1.390       .  A
C777        H783   1.083       .  S
O778        C779   1.330       .  A
C779        C780   1.391       .  A
C780        H784   1.083       .  S
C785        C790   1.380       .  A
C785        C786   1.410   1_456  A
C785        O791   1.325       .  A
C786        C787   1.409   1_655  A
C786        H797   1.082       .  S
C787        C796   1.370       .  A
C787        C788   1.380       .  A
C788        C789   1.402   1_554  A
C788        O794   1.317       .  A
C789        C790   1.401       .  A
C789        H798   1.082       .  S
C790        C793   1.360       .  A
O791        C792   1.333       .  A
C792        C793   1.390       .  A
C793        H799   1.083       .  S
O794        C795   1.331       .  A
C795        C796   1.394       .  A
C796        H800   1.082       .  S
C801        C806   1.381       .  A
C801        C802   1.408       .  A
C801        O807   1.325       .  A
C802        C803   1.408       .  A
C802        H813   1.083       .  S
C803        C812   1.366       .  A
C803        C804   1.381       .  A
C804        C805   1.392       .  A
C804        O810   1.310       .  A
C805        C806   1.392       .  A
C805        H814   1.083       .  S
C806        C809   1.347       .  A
O807        C808   1.333       .  A
C808        C809   1.386       .  A
C809        H815   1.083       .  S
O810        C811   1.325       .  A
C811        C812   1.395       .  A
C812        H816   1.083       .  S
C817        C822   1.381   1_554  A
C817        C818   1.397   1_554  A
C817        O823   1.310       .  A
C818        C819   1.395       .  A
C818        H829   1.083       .  S
C819        C828   1.357       .  A
C819        C820   1.381       .  A
C820        C821   1.405       .  A
C820        O826   1.317       .  A
C821        C822   1.403       .  A
C821        H830   1.082       .  S
C822        C825   1.366   1_556  A
O823        C824   1.327       .  A
C824        C825   1.390       .  A
C825        H831   1.082       .  S
O826        C827   1.331       .  A
C827        C828   1.386       .  A
C828        H832   1.083       .  S
C833        C838   1.380       .  A
C833        C834   1.400       .  A
C833        O839   1.318   1_455  A
C834        C835   1.400       .  A
C834        H845   1.083       .  S
C835        C844   1.355       .  A
C835        C836   1.380       .  A
C836        C837   1.410       .  A
C836        O842   1.328       .  A
C837        C838   1.411       .  A
C837        H846   1.082       .  S
C838        C841   1.369       .  A
O839        C840   1.330   1_655  A
C840        C841   1.397       .  A
C841        H847   1.083       .  S
O842        C843   1.335       .  A
C843        C844   1.392       .  A
C844        H848   1.083       .  S
C849        C854   1.381       .  A
C849        C850   1.399       .  A
C849        O855   1.313       .  A
C850        C851   1.397       .  A
C850        H861   1.083       .  S
C851        C860   1.358       .  A
C851        C852   1.381       .  A
C852        C853   1.404       .  A
C852        O858   1.317       .  A
C853        C854   1.402       .  A
C853        H862   1.083       .  S
C854        C857   1.365       .  A
O855        C856   1.327       .  A
C856        C857   1.389       .  A
C857        H863   1.082       .  S
O858        C859   1.331       .  A
C859        C860   1.388       .  A
C860        H864   1.083       .  S
C865        C870   1.380       .  A
C865        C866   1.408       .  A
C865        O871   1.322   1_554  A
C866        C867   1.407       .  A
C866        H877   1.083       .  S
C867        C876   1.369       .  A
C867        C868   1.381       .  A
C868        C869   1.396       .  A
C868        O874   1.311       .  A
C869        C870   1.395       .  A
C869        H878   1.083       .  S
C870        C873   1.354       .  A
O871        C872   1.333       .  A
C872        C873   1.389   1_556  A
C873        H879   1.083       .  S
O874        C875   1.327       .  A
C875        C876   1.393       .  A
C876        H880   1.082       .  S
C881        C886   1.381       .  A
C881        C882   1.403       .  A
C881        O887   1.316       .  A
C882        C883   1.401       .  A
C882        H893   1.082       .  S
C883        C892   1.363       .  A
C883        C884   1.380       .  A
C884        C885   1.404       .  A
C884        O890   1.317       .  A
C885        C886   1.402       .  A
C885        H894   1.082       .  S
C886        C889   1.364       .  A
O887        C888   1.330       .  A
C888        C889   1.390       .  A
C889        H895   1.082       .  S
O890        C891   1.331       .  A
C891        C892   1.390       .  A
C892        H896   1.082       .  S
C897        C902   1.380       .  A
C897        C898   1.397       .  A
C897        O903   1.313       .  A
C898        C899   1.396       .  A
C898        H909   1.083       .  S
C899        C908   1.354       .  A
C899        C900   1.379       .  A
C900        C901   1.412       .  A
C900        O906   1.327       .  A
C901        C902   1.412       .  A
C901        H910   1.083       .  S
C902        C905   1.373       .  A
O903        C904   1.327       .  A
C904        C905   1.397       .  A
C905        H911   1.082       .  S
O906        C907   1.336       .  A
C907        C908   1.388       .  A
C908        H912   1.083       .  S
C913        C918   1.380       .  A
C913        C914   1.405       .  A
C913        O919   1.321       .  A
C914        C915   1.405       .  A
C914        H925   1.083       .  S
C915        C924   1.362       .  A
C915        C916   1.381       .  A
C916        C917   1.401       .  A
C916        O922   1.319       .  A
C917        C918   1.401       .  A
C917        H926   1.083       .  S
C918        C921   1.358       .  A
O919        C920   1.332       .  A
C920        C921   1.391       .  A
C921        H927   1.083       .  S
O922        C923   1.330       .  A
C923        C924   1.392       .  A
C924        H928   1.083       .  S
C929        C934   1.380       .  A
C929        C930   1.403       .  A
C929        O935   1.319       .  A
C930        C931   1.402       .  A
C930        H941   1.082       .  S
C931        C940   1.361       .  A
C931        C932   1.380       .  A
C932        C933   1.407       .  A
C932        O938   1.323       .  A
C933        C934   1.407       .  A
C933        H942   1.082       .  S
C934        C937   1.367       .  A
O935        C936   1.331       .  A
C936        C937   1.393       .  A
C937        H943   1.082       .  S
O938        C939   1.332       .  A
C939        C940   1.389       .  A
C940        H944   1.083       .  S
C945        C950   1.379       .  A
C945        C946   1.399       .  A
C945        O951   1.314       .  A
C946        C947   1.398       .  A
C946        H957   1.083       .  S
C947        C956   1.355       .  A
C947        C948   1.378       .  A
C948        C949   1.415       .  A
C948        O954   1.330       .  A
C949        C950   1.414       .  A
C949        H958   1.082       .  S
C950        C953   1.377       .  A
O951        C952   1.330       .  A
C952        C953   1.398       .  A
C953        H959   1.082       .  S
O954        C955   1.338       .  A
C955        C956   1.391       .  A
C956        H960   1.083       .  S
C961        C966   1.381       .  A
C961        C962   1.399       .  A
C961        O967   1.312   1_556  A
C962        C963   1.397       .  A
C962        H973   1.083       .  S
C963        C972   1.359       .  A
C963        C964   1.381       .  A
C964        C965   1.405       .  A
C964        O970   1.317       .  A
C965        C966   1.402       .  A
C965        H974   1.083       .  S
C966        C969   1.366   1_556  A
O967        C968   1.328       .  A
C968        C969   1.390       .  A
C969        H975   1.082       .  S
O970        C971   1.331       .  A
C971        C972   1.387       .  A
C972        H976   1.083       .  S
C977        C982   1.380       .  A
C977        C978   1.410       .  A
C977        O983   1.323       .  A
C978        C979   1.408       .  A
C978        H989   1.083       .  S
C979        C988   1.372       .  A
C979        C980   1.380       .  A
C980        C981   1.397       .  A
C980        O986   1.311       .  A
C981        C982   1.395       .  A
C981        H990   1.083       .  S
C982        C985   1.356       .  A
O983        C984   1.334       .  A
C984        C985   1.387       .  A
C985        H991   1.083       .  S
O986        C987   1.328       .  A
C987        C988   1.395       .  A
C988        H992   1.082       .  S
C993        C998   1.380       .  A
C993        C994   1.405       .  A
C993        O999   1.319       .  A
C994        C995   1.404       .  A
C994       H1005   1.083       .  S
C995       C1004   1.365       .  A
C995        C996   1.380       .  A
C996        C997   1.405       .  A
C996       O1002   1.319       .  A
C997        C998   1.403       .  A
C997       H1006   1.082       .  S
C998       C1001   1.365       .  A
O999       C1000   1.332       .  A
C1000      C1001   1.392       .  A
C1001      H1007   1.083       .  S
O1002      C1003   1.331       .  A
C1003      C1004   1.392       .  A
C1004      H1008   1.083       .  S
C1009      C1014   1.381       .  A
C1009      C1010   1.402       .  A
C1009      O1015   1.315       .  A
C1010      C1011   1.400       .  A
C1010      H1021   1.083       .  S
C1011      C1020   1.363       .  A
C1011      C1012   1.381       .  A
C1012      C1013   1.402       .  A
C1012      O1018   1.315       .  A
C1013      C1014   1.400       .  A
C1013      H1022   1.083       .  S
C1014      C1017   1.363       .  A
O1015      C1016   1.330       .  A
C1016      C1017   1.390       .  A
C1017      H1023   1.083       .  S
O1018      C1019   1.330       .  A
C1019      C1020   1.389       .  A
C1020      H1024   1.083       .  S
C1025      C1030   1.380       .  A
C1025      C1026   1.398       .  A
C1025      O1031   1.317       .  A
C1026      C1027   1.399       .  A
C1026      H1037   1.082       .  S
C1027      C1036   1.353   1_565  A
C1027      C1028   1.379       .  A
C1028      C1029   1.414       .  A
C1028      O1034   1.332       .  A
C1029      C1030   1.415       .  A
C1029      H1038   1.082       .  S
C1030      C1033   1.373       .  A
O1031      C1032   1.329       .  A
C1032      C1033   1.399       .  A
C1033      H1039   1.082       .  S
O1034      C1035   1.337       .  A
C1035      C1036   1.391   1_565  A
C1036      H1040   1.082       .  S
C1041      C1046   1.380       .  A
C1041      C1042   1.403       .  A
C1041      O1047   1.318       .  A
C1042      C1043   1.402       .  A
C1042      H1053   1.082       .  S
C1043      C1052   1.362       .  A
C1043      C1044   1.380       .  A
C1044      C1045   1.406       .  A
C1044      O1050   1.321       .  A
C1045      C1046   1.405       .  A
C1045      H1054   1.082       .  S
C1046      C1049   1.365       .  A
O1047      C1048   1.330       .  A
C1048      C1049   1.392       .  A
C1049      H1055   1.082       .  S
O1050      C1051   1.333       .  A
C1051      C1052   1.392       .  A
C1052      H1056   1.082       .  S
C1057      C1062   1.380       .  A
C1057      C1058   1.410       .  A
C1057      O1063   1.326       .  A
C1058      C1059   1.410   1_554  A
C1058      H1069   1.082       .  S
C1059      C1068   1.370       .  A
C1059      C1060   1.380       .  A
C1060      C1061   1.403       .  A
C1060      O1066   1.320       .  A
C1061      C1062   1.403   1_556  A
C1061      H1070   1.082       .  S
C1062      C1065   1.361       .  A
O1063      C1064   1.335       .  A
C1064      C1065   1.392       .  A
C1065      H1071   1.083       .  S
O1066      C1067   1.331       .  A
C1067      C1068   1.394       .  A
C1068      H1072   1.082       .  S
C1073      C1078   1.380       .  A
C1073      C1074   1.406       .  A
C1073      O1079   1.323       .  A
C1074      C1075   1.406       .  A
C1074      H1085   1.083       .  S
C1075      C1084   1.364       .  A
C1075      C1076   1.380       .  A
C1076      C1077   1.407       .  A
C1076      O1082   1.324       .  A
C1077      C1078   1.407       .  A
C1077      H1086   1.083       .  S
C1078      C1081   1.365       .  A
O1079      C1080   1.333       .  A
C1080      C1081   1.394       .  A
C1081      H1087   1.083       .  S
O1082      C1083   1.333       .  A
C1083      C1084   1.393       .  A
C1084      H1088   1.083       .  S
C1089      C1094   1.382       .  A
C1089      C1090   1.402       .  A
C1089      O1095   1.321       .  A
C1090      C1091   1.404       .  A
C1090      H1101   1.083       .  S
C1091      C1100   1.359       .  A
C1091      C1092   1.382       .  A
C1092      C1093   1.397       .  A
C1092      O1098   1.316       .  A
C1093      C1094   1.397       .  A
C1093      H1102   1.083       .  S
C1094      C1097   1.351       .  A
O1095      C1096   1.329       .  A
C1096      C1097   1.386       .  A
C1097      H1103   1.083       .  S
O1098      C1099   1.327       .  A
C1099      C1100   1.391       .  A
C1100      H1104   1.083       .  S
C1105      C1110   1.380       .  A
C1105      C1106   1.410       .  A
C1105      O1111   1.323   1_554  A
C1106      C1107   1.409       .  A
C1106      H1117   1.083       .  S
C1107      C1116   1.372       .  A
C1107      C1108   1.381       .  A
C1108      C1109   1.395       .  A
C1108      O1114   1.309       .  A
C1109      C1110   1.393       .  A
C1109      H1118   1.083       .  S
C1110      C1113   1.352       .  A
O1111      C1112   1.334       .  A
C1112      C1113   1.387   1_556  A
C1113      H1119   1.083       .  S
O1114      C1115   1.327       .  A
C1115      C1116   1.395       .  A
C1116      H1120   1.082       .  S
