geometry optimzed in LAMMPS
_audit_creation_date              2020-11-30 
_audit_creation_method            'lammps2cif' 
_symmetry_space_group_name_H-M    'P1' 
_symmetry_Int_Tables_number       1 
_symmetry_cell_setting            triclinic 
loop_ 
_symmetry_equiv_pos_as_xyz 
  x,y,z 
_cell_length_a                    52.103872454759625 
_cell_length_b                    52.10024537202116 
_cell_length_c                    32.73151440305561 
_cell_angle_alpha                 89.99067373441538 
_cell_angle_beta                  90.02952756284809 
_cell_angle_gamma                 89.98748846826219 
loop_ 
_atom_site_label 
_atom_site_type_symbol 
_atom_site_fract_x 
_atom_site_fract_y 
_atom_site_fract_z 
_atom_site_charge 
Zn1        Zn  0.31372803  0.04717261  0.36507704     1.49720
Zn2        Zn  0.27652985  0.06377945  0.28346346     1.49360
Zn3        Zn  0.25529697  0.02429588  0.35570239     1.49110
Zn4        Zn  0.26774301  0.08031122  0.37272615     1.49480
O5          O  0.27870622  0.05292157  0.34251168    -1.83130
O6          O  0.33668752  0.05512258  0.31919247    -0.73760
O7          O  0.26082237  0.03248322  0.25304289    -0.73580
O8          O  0.27678970  0.49792028  0.38255449    -0.73100
O9          O  0.31379060  0.06658655  0.26404616    -0.73780
O10         O  0.31780615  0.01021275  0.38132529    -0.73380
O11         O  0.24459848  0.00756904  0.30252905    -0.73960
O12         O  0.24014039  0.07113009  0.40792920    -0.73350
O13         O  0.25701928  0.10071092  0.27307846    -0.74110
O14         O  0.22510378  0.03230410  0.39697616    -0.73500
O15         O  0.25572145  0.10726664  0.33918182    -0.73970
O16         O  0.29235354  0.09485913  0.40960876    -0.73870
O17         O  0.32589543  0.06967165  0.41510934    -0.73660
C18         C  0.33516166  0.06255640  0.28223518     0.78130
C19         C  0.24938796  0.01196680  0.26490716     0.78620
C20         C  0.30046823  0.49378413  0.38939930     0.77580
C21         C  0.22450757  0.05349106  0.41650822     0.77950
C22         C  0.25130896  0.11519111  0.30350147     0.79090
C23         C  0.31335426  0.08932457  0.42664135     0.78140
Zn24       Zn  0.20520841  0.46040069  0.09948234     1.49720
Zn25       Zn  0.24517514  0.44851522  0.17270120     1.49360
Zn26       Zn  0.19138907  0.47953370  0.18805387     1.49110
Zn27       Zn  0.19142548  0.41993738  0.16431252     1.49480
O28         O  0.20887286  0.45225551  0.15711076    -1.83130
O29         O  0.23847381  0.45443373  0.07189624    -0.73760
O30         O  0.25372182  0.47752519  0.21583126    -0.73580
O31         O  0.18184606  0.00996925  0.15209149    -0.73100
O32         O  0.26787889  0.45051416  0.12086547    -0.73780
O33         O  0.19513411  0.49605178  0.09153135    -0.73380
O34         O  0.21522678  0.49486375  0.22809285    -0.73960
O35         O  0.16181376  0.42459482  0.19964890    -0.73350
O36         O  0.25166066  0.41043487  0.19075713    -0.74110
O37         O  0.16026352  0.46573435  0.21829385    -0.73500
O38         O  0.21364642  0.39134521  0.18479982    -0.73970
O39         O  0.17858883  0.40659465  0.11124491    -0.73870
O40         O  0.18015960  0.43891356  0.06751034    -0.73660
C41         C  0.26149657  0.45062912  0.08310224     0.78130
C42         C  0.23920257  0.49374962  0.23449652     0.78620
C43         C  0.18573673  0.01340658  0.11409845     0.77580
C44         C  0.15129763  0.44298489  0.21864418     0.77950
C45         C  0.23764787  0.39013045  0.19107762     0.79090
C46         C  0.17467717  0.41585300  0.07595404     0.78140
Zn47       Zn  0.32596845  0.41375729  0.02616800     1.49720
Zn48       Zn  0.28569822  0.42764926  0.46137346     1.49360
Zn49       Zn  0.34516863  0.43061404  0.43897130     1.49110
Zn50       Zn  0.31643022  0.37505933  0.45029232     1.49480
O51         O  0.31846040  0.41128105  0.46823529    -1.83130
O52         O  0.30262629  0.43647581  0.06015353    -0.73760
O53         O  0.28869896  0.45748522  0.42564827    -0.73580
O54         O  0.37381053  0.44185884  0.47673995    -0.73100
O55         O  0.27128679  0.44006140  0.01490959    -0.73780
O56         O  0.36180298  0.42331163  0.03487793    -0.73380
O57         O  0.33028273  0.46227898  0.41192129    -0.73960
O58         O  0.34671029  0.36831537  0.40932701    -0.73350
O59         O  0.25930922  0.40394594  0.43935817    -0.74110
O60         O  0.36254365  0.40756649  0.39765329    -0.73500
O61         O  0.27973179  0.36715431  0.42755353    -0.73970
O62         O  0.31726803  0.35131932  0.50114939    -0.73870
O63         O  0.32098635  0.38011104  0.05093171    -0.73660
C64         C  0.27981343  0.44289226  0.05106230     0.78130
C65         C  0.30705881  0.46979881  0.40948744     0.78620
C66         C  0.37815049  0.43527038  0.01349925     0.77580
C67         C  0.36250013  0.38344830  0.39107591     0.77950
C68         C  0.25903788  0.38043455  0.42934058     0.79090
C69         C  0.31730867  0.35728371  0.03905952     0.78140
Zn70       Zn  0.44917881  0.35365708  0.25258002     1.49720
Zn71       Zn  0.43122255  0.34357772  0.34097052     1.49360
Zn72       Zn  0.39268057  0.36529558  0.26994672     1.49110
Zn73       Zn  0.41485721  0.30661035  0.26055340     1.49480
O74         O  0.42112708  0.34194143  0.28247819    -1.83130
O75         O  0.47923234  0.36171937  0.28381517    -0.73760
O76         O  0.40090404  0.36090626  0.37224139    -0.73580
O77         O  0.40156540  0.39424479  0.22820172    -0.73100
O78         O  0.46824391  0.36126404  0.34912667    -0.73780
O79         O  0.44159059  0.38204819  0.21687743    -0.73380
O80         O  0.37647633  0.37782795  0.32285232    -0.73960
O81         O  0.37793860  0.30292497  0.24375334    -0.73350
O82         O  0.43378840  0.30648187  0.36089679    -0.74110
O83         O  0.36578497  0.34399697  0.24315817    -0.73500
O84         O  0.42289114  0.28313230  0.30609550    -0.73970
O85         O  0.43712648  0.29423127  0.21083864    -0.73870
O86         O  0.46016599  0.32925169  0.21456944    -0.73660
C87         C  0.48482624  0.36533859  0.32076504     0.78130
C88         C  0.38091148  0.37333148  0.36056287     0.78620
C89         C  0.42268697  0.39620155  0.20869151     0.77580
C90         C  0.36160132  0.32037446  0.23572100     0.77950
C91         C  0.43029183  0.28493915  0.34303500     0.79090
C92         C  0.45565251  0.30793432  0.19824645     0.78140
Zn93       Zn  0.00659500  0.02461007  0.39748169     1.49720
Zn94       Zn  0.02854116  0.06420298  0.46520444     1.49360
Zn95       Zn  0.06507937  0.04553022  0.38666077     1.49110
Zn96       Zn  0.01911520  0.08116412  0.37548744     1.49480
O97         O  0.03013958  0.05326372  0.40738062    -1.83130
O98         O  0.49546810  0.00903719  0.45124072    -0.73760
O99         O  0.06540703  0.07004648  0.48210821    -0.73580
O100        O  0.06782323  0.00845643  0.37061127    -0.73100
O101        O  0.01326085  0.03372534  0.99934939    -0.73780
O102        O  0.02661683  0.49692651  0.37017501    -0.73380
O103        O  0.08939301  0.05306123  0.43211632    -0.73960
O104        O  0.04421973  0.09426886  0.33826777    -0.73350
O105        O  0.00962131  0.10010887  0.47284370    -0.74110
O106        O  0.07696553  0.06747635  0.33648056    -0.73500
O107        O  0.00857492  0.11055432  0.40725041    -0.73970
O108        O  0.49112203  0.07152913  0.34011873    -0.73870
O109        O  0.47653169  0.03326062  0.35843633    -0.73660
C110        C  0.50072248  0.01359099  0.48860627     0.78130
C111        C  0.08708871  0.06414965  0.46657879     0.78620
C112        C  0.05016499  0.49229669  0.36295073     0.77580
C113        C  0.06541962  0.08743783  0.32349579     0.77950
C114        C  0.00484388  0.11624177  0.44421632     0.79090
C115        C  0.47557079  0.05317737  0.33583042     0.78140
Zn116      Zn  0.44208868  0.47741805  0.06320375     1.49720
Zn117      Zn  0.44398315  0.41762799  0.08555934     1.49360
Zn118      Zn  0.49703460  0.44821485  0.07747137     1.49110
Zn119      Zn  0.45638158  0.45743649  0.14983987     1.49480
O120        O  0.46049589  0.45023804  0.09231469    -1.83130
O121        O  0.41239994  0.46279962  0.03120931    -0.73760
O122        O  0.46748016  0.39104736  0.06124930    -0.73580
O123        O  0.00522229  0.47892883  0.03724865    -0.73100
O124        O  0.41279837  0.42208779  0.05244243    -0.73780
O125        O  0.46641876  0.99584436  0.02563863    -0.73380
O126        O  0.00486807  0.41146816  0.05480715    -0.73960
O127        O  0.48852431  0.44926861  0.17857373    -0.73350
O128        O  0.43324808  0.40344646  0.14031588    -0.74110
O129        O  0.01885746  0.44821123  0.13074985    -0.73980
O130        O  0.42907949  0.43743911  0.18011986    -0.73970
O131        O  0.44941483  0.49351398  0.15833066    -0.73870
O132        O  0.42827733  0.00469164  0.10207112    -0.73660
C133        C  0.40266959  0.44040740  0.03255188     0.78130
C134        C  0.49143110  0.39082836  0.05371884     0.78620
C135        C  0.49054338  0.49540452  0.01944652     0.77580
C136        C  0.01177992  0.44641713  0.16813683     0.77950
C137        C  0.42679307  0.41353448  0.17420771     0.79090
C138        C  0.43588070  0.00926118  0.13830274     0.78140
Zn139      Zn  0.03591576  0.42524569  0.29130922     1.49720
Zn140      Zn  0.06770305  0.37285470  0.30278121     1.49360
Zn141      Zn  0.07701564  0.41098262  0.22646137     1.49110
Zn142      Zn  0.09530132  0.42952834  0.31326033     1.49480
O143        O  0.06905676  0.40916058  0.28435624    -1.83130
O144        O  0.01014201  0.40152906  0.31587003    -0.73760
O145        O  0.07074318  0.34834933  0.25279697    -0.73580
O146        O  0.05244727  0.43159750  0.19163927    -0.73100
O147        O  0.03072654  0.36455678  0.32544973    -0.73780
O148        O  0.02125177  0.43646070  0.23689614    -0.73380
O149        O  0.07545505  0.37660877  0.20242766    -0.73960
O150        O  0.12311140  0.44291291  0.27549412    -0.73350
O151        O  0.09774189  0.36722652  0.34389932    -0.74110
O152        O  0.11149763  0.42392559  0.21760987    -0.73500
O153        O  0.11367384  0.40667636  0.35358465    -0.73970
O154        O  0.07965866  0.46038079  0.34131757    -0.73870
O155        O  0.03828444  0.45600916  0.32598918    -0.73660
C156        C  0.01001062  0.37793203  0.32557330     0.78130
C157        C  0.07223464  0.35381614  0.21479313     0.78620
C158        C  0.02975989  0.43845641  0.20053359     0.77580
C159        C  0.12725689  0.43695579  0.23844297     0.77950
C160        C  0.11368730  0.38265570  0.36102259     0.79090
C161        C  0.05650311  0.46814994  0.34293670     0.78140
Zn162      Zn  0.16384939  0.30792533  0.49357955     1.49720
Zn163      Zn  0.14156308  0.36594064  0.48261373     1.49360
Zn164      Zn  0.19912014  0.35410033  0.00397074     1.49110
Zn165      Zn  0.18190369  0.34458643  0.41523093     1.49480
O166        O  0.17090081  0.34289075  0.47287949    -1.83130
O167        O  0.12754157  0.30549801  0.01272431    -0.73760
O168        O  0.14995261  0.39518467  0.02319355    -0.73580
O169        O  0.21158678  0.32974494  0.04314053    -0.73100
O170        O  0.11266413  0.34546865  0.00674089    -0.73780
O171        O  0.18655829  0.29565726  0.04213728    -0.73380
O172        O  0.18984003  0.38302780  0.03713372    -0.73960
O173        O  0.21749044  0.36364737  0.40690676    -0.73350
O174        O  0.12725040  0.37860098  0.42921380    -0.74110
O175        O  0.22896245  0.36337825  0.47202898    -0.73500
O176        O  0.15163632  0.35994409  0.38153678    -0.73970
O177        O  0.18782569  0.30784941  0.39815334    -0.73870
O178        O  0.17031797  0.28371578  0.44751638    -0.73660
C179        C  0.10981935  0.32207613  0.01689868     0.78130
C180        C  0.17084549  0.39752618  0.04317926     0.78620
C181        C  0.20555157  0.30798391  0.05667693     0.77580
C182        C  0.23414181  0.36764536  0.43501852     0.77950
C183        C  0.13187067  0.37307373  0.39203497     0.79090
C184        C  0.18165222  0.28613698  0.41326841     0.78140
Zn185      Zn  0.03817585  0.17757285  0.21716223     1.49720
Zn186      Zn  0.07989282  0.16242611  0.28135985     1.49360
Zn187      Zn  0.06779713  0.12455802  0.20530824     1.49110
Zn188      Zn  0.09708335  0.17981910  0.19307775     1.49480
O189        O  0.07088744  0.16051520  0.22371636    -1.83130
O190        O  0.02563663  0.19171209  0.27001361    -0.73760
O191        O  0.07950714  0.12763933  0.30527054    -0.73580
O192        O  0.02965180  0.11745008  0.18696921    -0.73100
O193        O  0.05512132  0.18254282  0.31650363    -0.73780
O194        O  0.01005217  0.15467748  0.19829186    -0.73380
O195        O  0.07231010  0.10004939  0.25457826    -0.73960
O196        O  0.11236703  0.15749980  0.15042425    -0.73350
O197        O  0.11412152  0.17694758  0.28916589    -0.74110
O198        O  0.09613184  0.11833472  0.16130043    -0.73500
O199        O  0.12768051  0.18944045  0.22800854    -0.73970
O200        O  0.08212013  0.21181057  0.16674797    -0.73870
O201        O  0.04052060  0.20631690  0.17921334    -0.73660
C202        C  0.03354933  0.19205128  0.30672491     0.78130
C203        C  0.07524188  0.10505051  0.29251773     0.78620
C204        C  0.00913280  0.13113179  0.18870228     0.77580
C205        C  0.11169931  0.13359963  0.14294456     0.77950
C206        C  0.13112491  0.18659849  0.26617163     0.79090
C207        C  0.05878065  0.21880056  0.16320669     0.78140
Zn208      Zn  0.14056264  0.11730899  0.02130696     1.49720
Zn209      Zn  0.19748838  0.10548796  0.00489709     1.49360
Zn210      Zn  0.18090206  0.09613549  0.09319068     1.49110
Zn211      Zn  0.16471608  0.05932946  0.01108887     1.49480
O212        O  0.16982436  0.09421250  0.03422709    -1.83130
O213        O  0.14869669  0.14719204  0.47937644    -0.73760
O214        O  0.22456139  0.11713608  0.03876761    -0.73580
O215        O  0.15001583  0.11200749  0.12351626    -0.73100
O216        O  0.18822933  0.13335100  0.47067410    -0.73780
O217        O  0.12506418  0.12901434  0.07464542    -0.73380
O218        O  0.21774983  0.11531731  0.10470118    -0.73960
O219        O  0.17210817  0.03598080  0.05713269    -0.73350
O220        O  0.21206679  0.08138275  0.46717397    -0.74110
O221        O  0.18357742  0.05892140  0.11224349    -0.73500
O222        O  0.18766020  0.04729399  0.46197113    -0.73970
O223        O  0.12838644  0.05577841  0.49206086    -0.73870
O224        O  0.11288379  0.09565101  0.99654083    -0.73660
C225        C  0.17035505  0.14850608  0.46124923     0.78130
C226        C  0.23238075  0.12120734  0.07462068     0.78620
C227        C  0.12974147  0.12398946  0.11208353     0.77580
C228        C  0.17958560  0.03754850  0.09410845     0.77950
C229        C  0.20696190  0.06023640  0.45029211     0.79090
C230        C  0.11047254  0.07208707  0.48706999     0.78140
Zn231      Zn  0.28042699  0.29293659  0.09806458     1.49720
Zn232      Zn  0.29610288  0.33492861  0.16141918     1.49360
Zn233      Zn  0.24298087  0.30566719  0.17428341     1.49110
Zn234      Zn  0.29781179  0.27604428  0.18672519     1.49480
O235        O  0.27881047  0.30230785  0.15565551    -1.83130
O236        O  0.30053924  0.31716079  0.06173752    -0.73760
O237        O  0.27337073  0.36327118  0.18071962    -0.73580
O238        O  0.21845531  0.30136942  0.12532936    -0.73100
O239        O  0.30924597  0.34717049  0.10756127    -0.73780
O240        O  0.24565372  0.29348417  0.07439481    -0.73380
O241        O  0.23608306  0.34383001  0.19226785    -0.73960
O242        O  0.27554214  0.26132429  0.22994967    -0.73350
O243        O  0.32553477  0.33227618  0.19855527    -0.74110
O244        O  0.23642441  0.27741154  0.21820230    -0.73500
O245        O  0.33019822  0.29068760  0.21222128    -0.73970
O246        O  0.30664477  0.24497037  0.15242891    -0.73870
O247        O  0.29422003  0.25844463  0.09115767    -0.73660
C248        C  0.30959095  0.33901554  0.07095256     0.78130
C249        C  0.24980734  0.36429898  0.19028792     0.78620
C250        C  0.22322769  0.29814759  0.08741279     0.77580
C251        C  0.25159331  0.26195990  0.23699892     0.77950
C252        C  0.33773238  0.31389864  0.21495730     0.79090
C253        C  0.30355551  0.24136897  0.11436534     0.78140
Zn254      Zn  0.21378607  0.19281407  0.28613787     1.49720
Zn255      Zn  0.22316923  0.17589320  0.37426572     1.49360
Zn256      Zn  0.23501185  0.23284845  0.35840654     1.49110
Zn257      Zn  0.17696190  0.20882694  0.36805691     1.49480
O258        O  0.21192443  0.20367000  0.34513444    -1.83130
O259        O  0.23312445  0.15614289  0.27416010    -0.73760
O260        O  0.25098917  0.18505154  0.40896886    -0.73580
O261        O  0.24690772  0.24839555  0.30519426    -0.73100
O262        O  0.23497188  0.14897712  0.34001669    -0.73780
O263        O  0.22958346  0.22383845  0.25610081    -0.73380
O264        O  0.26485599  0.22459933  0.40048648    -0.73960
O265        O  0.17331590  0.24497872  0.38739335    -0.73350
O266        O  0.19865367  0.16118652  0.41131848    -0.74110
O267        O  0.21320456  0.26045461  0.38319900    -0.73500
O268        O  0.16460329  0.18568648  0.41647765    -0.73970
O269        O  0.15353983  0.20150190  0.32237328    -0.73870
O270        O  0.17652463  0.18979207  0.26748057    -0.73660
C271        C  0.23907734  0.14137025  0.30404238     0.78130
C272        C  0.26614845  0.20290851  0.41855649     0.78620
C273        C  0.24179145  0.24393075  0.26772013     0.77580
C274        C  0.18962128  0.26284553  0.39259937     0.77950
C275        C  0.17738388  0.16622807  0.42790199     0.79090
C276        C  0.15514042  0.19369818  0.28562796     0.78140
Zn277      Zn  0.39382860  0.07350582  0.18911609     1.49720
Zn278      Zn  0.41279806  0.08664555  0.27825292     1.49360
Zn279      Zn  0.45336444  0.07296462  0.21385418     1.49110
Zn280      Zn  0.42491559  0.12678802  0.20536417     1.49480
O281        O  0.42108318  0.09053284  0.22065951    -1.83130
O282        O  0.36297805  0.06439741  0.22447053    -0.73760
O283        O  0.43397565  0.06128693  0.31051775    -0.73580
O284        O  0.44868809  0.04330783  0.17824818    -0.73100
O285        O  0.37691619  0.07724459  0.28530046    -0.73780
O286        O  0.40766213  0.04256557  0.15870280    -0.73380
O287        O  0.46667544  0.06081856  0.26750491    -0.73960
O288        O  0.46305429  0.13311469  0.18786713    -0.73350
O289        O  0.41895881  0.11973871  0.30630518    -0.74110
O290        O  0.48202091  0.09499861  0.19336248    -0.73500
O291        O  0.42281821  0.14917313  0.25736942    -0.73970
O292        O  0.39613342  0.13578205  0.16201627    -0.73870
O293        O  0.37893051  0.09738604  0.14882403    -0.73660
C294        C  0.35943912  0.06834605  0.26242770     0.78130
C295        C  0.45731561  0.05667505  0.30267033     0.78620
C296        C  0.43028584  0.03328174  0.15853319     0.77580
C297        C  0.48331110  0.11902577  0.18748518     0.77950
C298        C  0.42274287  0.14275819  0.29511316     0.79090
C299        C  0.38005907  0.12138602  0.14280045     0.78140
Zn300      Zn  0.32623582  0.19608906  0.01271638     1.49720
Zn301      Zn  0.30998119  0.15866932  0.09413399     1.49360
Zn302      Zn  0.29323503  0.14978261  0.00513151     1.49110
Zn303      Zn  0.34945921  0.13780878  0.02147982     1.49480
O304        O  0.32069493  0.16091247  0.03506382    -1.83130
O305        O  0.31804838  0.21891513  0.05827449    -0.73760
O306        O  0.27322266  0.13906781  0.10498791    -0.73580
O307        O  0.27855231  0.17461321  0.46865741    -0.73100
O308        O  0.30667023  0.19587718  0.11326657    -0.73780
O309        O  0.30346015  0.20838758  0.46344071    -0.73380
O310        O  0.26635133  0.13772758  0.03896198    -0.73960
O311        O  0.34152803  0.10759038  0.47981131    -0.73350
O312        O  0.34140487  0.14314933  0.12438073    -0.74110
O313        O  0.30244760  0.12221216  0.46968911    -0.73500
O314        O  0.36626451  0.12702082  0.07472080    -0.73970
O315        O  0.37552256  0.15991103  0.99477515    -0.73870
O316        O  0.36299494  0.20085229  0.49620501    -0.73660
C317        C  0.31038733  0.21727893  0.09503724     0.78130
C318        C  0.25859369  0.13335258  0.07475548     0.78620
C319        C  0.28382580  0.19581540  0.45203430     0.77580
C320        C  0.32019279  0.10677615  0.46064823     0.77950
C321        C  0.36190768  0.13173850  0.11240220     0.79090
C322        C  0.37949734  0.18364234  0.48794257     0.78140
Zn323      Zn  0.01824144  0.33042680  0.12710179     1.49720
Zn324      Zn  0.00676274  0.27299102  0.10823120     1.49360
Zn325      Zn  0.02769701  0.31340524  0.03928118     1.49110
Zn326      Zn  0.06485227  0.29581158  0.11791057     1.49480
O327        O  0.02972109  0.30238477  0.09692344    -1.83130
O328        O  0.48868479  0.32002006  0.15685261    -0.73760
O329        O  0.49572124  0.25725693  0.05481058    -0.73580
O330        O  0.00762422  0.34881979  0.03125742    -0.73100
O331        O  0.47604716  0.28005853  0.14769853    -0.73780
O332        O  0.00951377  0.36090530  0.09596528    -0.73380
O333        O  0.01257941  0.28253748  0.00647439    -0.73960
O334        O  0.08878684  0.30411425  0.07257794    -0.73350
O335        O  0.02823658  0.24638601  0.13516097    -0.74110
O336        O  0.06458520  0.31978592  0.02169525    -0.73500
O337        O  0.06912906  0.25897964  0.13408410    -0.73970
O338        O  0.07583675  0.31767392  0.16847584    -0.73870
O339        O  0.04135037  0.34217027  0.16898880    -0.73660
C340        C  0.47368049  0.30173211  0.16522005     0.78130
C341        C  0.50052811  0.26215971  0.01742632     0.78620
C342        C  0.00427643  0.36578942  0.05917074     0.77580
C343        C  0.08636394  0.31456879  0.03764117     0.77950
C344        C  0.05193675  0.24246894  0.14230361     0.79090
C345        C  0.06291433  0.33616033  0.18344575     0.78140
Zn346      Zn  0.49787732  0.19849877  0.42709812     1.49720
Zn347      Zn  0.44538388  0.16821060  0.41648774     1.49360
Zn348      Zn  0.44327829  0.22818659  0.43861107     1.49110
Zn349      Zn  0.45857882  0.20834581  0.35088640     1.49480
O350        O  0.46174939  0.20102884  0.40898907    -1.83130
O351        O  0.00567503  0.16189829  0.45042947    -0.73760
O352        O  0.41577964  0.17187971  0.45204260    -0.73580
O353        O  0.46632436  0.24406114  0.48072829    -0.73100
O354        O  0.46871041  0.14172097  0.43944409    -0.73780
O355        O  0.00551946  0.22867642  0.46750259    -0.73380
O356        O  0.41087860  0.21362149  0.46480050    -0.73960
O357        O  0.44584170  0.24324222  0.34110003    -0.73350
O358        O  0.43279163  0.15304044  0.36346405    -0.74110
O359        O  0.43419288  0.25829099  0.40181883    -0.73500
O360        O  0.43718620  0.18375993  0.31741909    -0.73970
O361        O  0.49263744  0.20480325  0.32607671    -0.73870
O362        O  0.02101566  0.19901485  0.37618106    -0.73660
C363        C  0.49223021  0.14130539  0.44937401     0.78130
C364        C  0.40341480  0.19035478  0.46772552     0.78620
C365        C  0.49048116  0.24412586  0.48655396     0.77580
C366        C  0.43691617  0.26100026  0.36344275     0.77950
C367        C  0.43041312  0.16117098  0.32700790     0.79090
C368        C  0.01527223  0.20012691  0.33825319     0.78140
Zn369      Zn  0.31372829  0.04717271  0.86507720     1.49720
Zn370      Zn  0.27653022  0.06377946  0.78346319     1.49360
Zn371      Zn  0.25529745  0.02429596  0.85570225     1.49110
Zn372      Zn  0.26774366  0.08031151  0.87272562     1.49480
O373        O  0.27870663  0.05292164  0.84251143    -1.83130
O374        O  0.33668783  0.05512274  0.81919292    -0.73760
O375        O  0.26082269  0.03248319  0.75304267    -0.73580
O376        O  0.27679021  0.49792025  0.88255421    -0.73100
O377        O  0.31379105  0.06658646  0.76404628    -0.73780
O378        O  0.31780659  0.01021287  0.88132519    -0.73380
O379        O  0.24459864  0.00756917  0.80252891    -0.73960
O380        O  0.24014146  0.07113038  0.90792933    -0.73350
O381        O  0.25701960  0.10071097  0.77307796    -0.74110
O382        O  0.22510467  0.03230441  0.89697654    -0.73500
O383        O  0.25572171  0.10726668  0.83918127    -0.73970
O384        O  0.29235425  0.09485996  0.90960760    -0.73870
O385        O  0.32589540  0.06967163  0.91510979    -0.73660
C386        C  0.33516206  0.06255642  0.78223556     0.78130
C387        C  0.24938813  0.01196686  0.76490698     0.78620
C388        C  0.30046874  0.49378418  0.88939909     0.77580
C389        C  0.22450869  0.05349137  0.91650864     0.77950
C390        C  0.25130916  0.11519113  0.80350095     0.79090
C391        C  0.31335460  0.08932498  0.92664098     0.78140
Zn392      Zn  0.20520782  0.46040059  0.59948230     1.49720
Zn393      Zn  0.24517498  0.44851529  0.67270079     1.49360
Zn394      Zn  0.19138900  0.47953383  0.68805387     1.49110
Zn395      Zn  0.19142538  0.41993738  0.66431278     1.49480
O396        O  0.20887264  0.45225555  0.65711076    -1.83130
O397        O  0.23847302  0.45443351  0.57189577    -0.73760
O398        O  0.25372181  0.47752529  0.71583085    -0.73580
O399        O  0.18184592  0.00996933  0.65209137    -0.73100
O400        O  0.26787837  0.45051419  0.62086466    -0.73780
O401        O  0.19513348  0.49605163  0.59153110    -0.73380
O402        O  0.21522681  0.49486384  0.72809287    -0.73960
O403        O  0.16181349  0.42459503  0.69964881    -0.73350
O404        O  0.25166066  0.41043490  0.69075658    -0.74110
O405        O  0.16026337  0.46573458  0.71829370    -0.73500
O406        O  0.21364635  0.39134526  0.68480042    -0.73970
O407        O  0.17858898  0.40659440  0.61124515    -0.73870
O408        O  0.18015885  0.43891341  0.56751071    -0.73660
C409        C  0.26149583  0.45062896  0.58310151     0.78130
C410        C  0.23920263  0.49374970  0.73449634     0.78620
C411        C  0.18573628  0.01340651  0.61409821     0.77580
C412        C  0.15129737  0.44298517  0.71864394     0.77950
C413        C  0.23764787  0.39013049  0.69107759     0.79090
C414        C  0.17467696  0.41585272  0.57595436     0.78140
Zn415      Zn  0.32596712  0.41375660  0.52616717     1.49720
Zn416      Zn  0.28569905  0.42764970  0.96137426     1.49360
Zn417      Zn  0.34516948  0.43061445  0.93897162     1.49110
Zn418      Zn  0.31643072  0.37505988  0.95029321     1.49480
O419        O  0.31846131  0.41128160  0.96823614    -1.83130
O420        O  0.30262539  0.43647549  0.56015258    -0.73760
O421        O  0.28869966  0.45748550  0.92564878    -0.73580
O422        O  0.37381169  0.44185966  0.97673959    -0.73100
O423        O  0.27128580  0.44006094  0.51490882    -0.73780
O424        O  0.36180159  0.42331025  0.53487772    -0.73380
O425        O  0.33028335  0.46227912  0.91192105    -0.73960
O426        O  0.34671066  0.36831555  0.90932813    -0.73350
O427        O  0.25930985  0.40394641  0.93935923    -0.74110
O428        O  0.36254426  0.40756652  0.89765396    -0.73500
O429        O  0.27973232  0.36715484  0.92755411    -0.73970
O430        O  0.31726840  0.35132010  0.00115033    -0.73870
O431        O  0.32098463  0.38011049  0.55093063    -0.73660
C432        C  0.27981253  0.44289194  0.55106145     0.78130
C433        C  0.30705942  0.46979895  0.90948743     0.78620
C434        C  0.37814915  0.43526918  0.51349948     0.77580
C435        C  0.36250056  0.38344830  0.89107685     0.77950
C436        C  0.25903842  0.38043508  0.92934127     0.79090
C437        C  0.31730765  0.35728306  0.53905855     0.78140
Zn438      Zn  0.44917836  0.35365683  0.75258022     1.49720
Zn439      Zn  0.43122261  0.34357756  0.84097087     1.49360
Zn440      Zn  0.39268010  0.36529507  0.76994760     1.49110
Zn441      Zn  0.41485693  0.30661007  0.76055377     1.49480
O442        O  0.42112682  0.34194111  0.78247868    -1.83130
O443        O  0.47923182  0.36171997  0.78381503    -0.73760
O444        O  0.40090439  0.36090625  0.87224211    -0.73580
O445        O  0.40156449  0.39424445  0.72820303    -0.73100
O446        O  0.46824399  0.36126388  0.84912675    -0.73780
O447        O  0.44158948  0.38204761  0.71687755    -0.73380
O448        O  0.37647612  0.37782736  0.82285322    -0.73960
O449        O  0.37793838  0.30292467  0.74375327    -0.73350
O450        O  0.43378842  0.30648175  0.86089703    -0.74110
O451        O  0.36578453  0.34399659  0.74315881    -0.73500
O452        O  0.42289074  0.28313216  0.80609593    -0.73970
O453        O  0.43712637  0.29423085  0.71083934    -0.73870
O454        O  0.46016586  0.32925131  0.71456996    -0.73660
C455        C  0.48482601  0.36533895  0.82076487     0.78130
C456        C  0.38091167  0.37333125  0.86056374     0.78620
C457        C  0.42268584  0.39620107  0.70869223     0.77580
C458        C  0.36160104  0.32037414  0.73572112     0.77950
C459        C  0.43029163  0.28493905  0.84303532     0.79090
C460        C  0.45565245  0.30793385  0.69824718     0.78140
Zn461      Zn  0.00659618  0.02461147  0.89748256     1.49720
Zn462      Zn  0.02854322  0.06420431  0.96520433     1.49360
Zn463      Zn  0.06508067  0.04553075  0.88666026     1.49110
Zn464      Zn  0.01911672  0.08116499  0.87548737     1.49480
O465        O  0.03014116  0.05326477  0.90738068    -1.83130
O466        O  0.49546998  0.00903887  0.95124197    -0.73760
O467        O  0.06540908  0.07004790  0.98210685    -0.73580
O468        O  0.06782375  0.00845687  0.87061080    -0.73100
O469        O  0.01325819  0.03372393  0.49934855    -0.73780
O470        O  0.02661717  0.49692754  0.87017513    -0.73380
O471        O  0.08939478  0.05306170  0.93211539    -0.73960
O472        O  0.04422154  0.09427002  0.83826876    -0.73350
O473        O  0.00962333  0.10011014  0.97284369    -0.74110
O474        O  0.07696658  0.06747659  0.83647962    -0.73500
O475        O  0.00857567  0.11055497  0.90725020    -0.73970
O476        O  0.49112399  0.07152970  0.84011772    -0.73870
O477        O  0.47653236  0.03326228  0.85843838    -0.73660
C478        C  0.50072486  0.01359251  0.98860736     0.78130
C479        C  0.08709063  0.06415060  0.96657751     0.78620
C480        C  0.05016522  0.49229738  0.86295045     0.77580
C481        C  0.06542105  0.08743856  0.82349593     0.77950
C482        C  0.00484507  0.11624266  0.94421613     0.79090
C483        C  0.47557210  0.05317834  0.83583088     0.78140
Zn484      Zn  0.44208691  0.47741701  0.56320465     1.49720
Zn485      Zn  0.44398153  0.41762680  0.58555991     1.49360
Zn486      Zn  0.49703285  0.44821362  0.57747074     1.49110
Zn487      Zn  0.45638064  0.45743559  0.64984013     1.49480
O488        O  0.46049432  0.45023689  0.59231495    -1.83130
O489        O  0.41239802  0.46279854  0.53121099    -0.73760
O490        O  0.46747872  0.39104595  0.56125096    -0.73580
O491        O  0.00521998  0.47892727  0.53724731    -0.73100
O492        O  0.41279702  0.42208633  0.55244237    -0.73780
O493        O  0.46641648  0.99584313  0.52563836    -0.73380
O494        O  0.00486629  0.41146703  0.55480645    -0.73960
O495        O  0.48852354  0.44926767  0.67857325    -0.73350
O496        O  0.43324615  0.40344582  0.64031645    -0.74110
O497        O  0.01885631  0.44821035  0.63074878    -0.73980
O498        O  0.42907867  0.43743852  0.68012071    -0.73970
O499        O  0.44941451  0.49351321  0.65833114    -0.73870
O500        O  0.42827615  0.00469077  0.60207239    -0.73660
C501        C  0.40266807  0.44040613  0.53255251     0.78130
C502        C  0.49142952  0.39082710  0.55371935     0.78620
C503        C  0.49054101  0.49540302  0.51944547     0.77580
C504        C  0.01177909  0.44641637  0.66813594     0.77950
C505        C  0.42679168  0.41353396  0.67420844     0.79090
C506        C  0.43588016  0.00926044  0.63830365     0.78140
Zn507      Zn  0.03591547  0.42524627  0.79130872     1.49720
Zn508      Zn  0.06770281  0.37285517  0.80278118     1.49360
Zn509      Zn  0.07701535  0.41098284  0.72646082     1.49110
Zn510      Zn  0.09530104  0.42952870  0.81325999     1.49480
O511        O  0.06905645  0.40916101  0.78435583    -1.83130
O512        O  0.01014173  0.40152946  0.81586925    -0.73760
O513        O  0.07074281  0.34834972  0.75279705    -0.73580
O514        O  0.05244669  0.43159712  0.69163817    -0.73100
O515        O  0.03072632  0.36455730  0.82544988    -0.73780
O516        O  0.02125148  0.43646090  0.73689540    -0.73380
O517        O  0.07545521  0.37660885  0.70242744    -0.73960
O518        O  0.12311109  0.44291322  0.77549377    -0.73350
O519        O  0.09774181  0.36722697  0.84389918    -0.74110
O520        O  0.11149724  0.42392612  0.71760935    -0.73500
O521        O  0.11367374  0.40667680  0.85358436    -0.73970
O522        O  0.07965842  0.46038116  0.84131714    -0.73870
O523        O  0.03828414  0.45600993  0.82598874    -0.73660
C524        C  0.01001036  0.37793249  0.82557294     0.78130
C525        C  0.07223457  0.35381630  0.71479316     0.78620
C526        C  0.02975934  0.43845611  0.70053263     0.77580
C527        C  0.12725655  0.43695620  0.73844257     0.77950
C528        C  0.11368728  0.38265615  0.86102233     0.79090
C529        C  0.05650295  0.46815055  0.84293629     0.78140
Zn530      Zn  0.16384974  0.30792565  0.99357922     1.49720
Zn531      Zn  0.14156325  0.36594090  0.98261344     1.49360
Zn532      Zn  0.19911992  0.35410000  0.50397093     1.49110
Zn533      Zn  0.18190405  0.34458699  0.91523057     1.49480
O534        O  0.17090108  0.34289110  0.97287912    -1.83130
O535        O  0.12754121  0.30549785  0.51272458    -0.73760
O536        O  0.14995247  0.39518438  0.52319383    -0.73580
O537        O  0.21158653  0.32974459  0.54314075    -0.73100
O538        O  0.11266383  0.34546851  0.50674108    -0.73780
O539        O  0.18655788  0.29565700  0.54213763    -0.73380
O540        O  0.18983989  0.38302751  0.53713401    -0.73960
O541        O  0.21749099  0.36364794  0.90690686    -0.73350
O542        O  0.12725040  0.37860121  0.92921355    -0.74110
O543        O  0.22896274  0.36337871  0.97202917    -0.73500
O544        O  0.15163657  0.35994479  0.88153640    -0.73970
O545        O  0.18782601  0.30784989  0.89815289    -0.73870
O546        O  0.17031836  0.28371620  0.94751597    -0.73660
C547        C  0.10981901  0.32207600  0.51689889     0.78130
C548        C  0.17084534  0.39752588  0.54317956     0.78620
C549        C  0.20555121  0.30798360  0.55667723     0.77580
C550        C  0.23414226  0.36764590  0.93501881     0.77950
C551        C  0.13187076  0.37307419  0.89203466     0.79090
C552        C  0.18165257  0.28613743  0.91326797     0.78140
Zn553      Zn  0.03817592  0.17757281  0.71716209     1.49720
Zn554      Zn  0.07989304  0.16242674  0.78135966     1.49360
Zn555      Zn  0.06779737  0.12455824  0.70530833     1.49110
Zn556      Zn  0.09708358  0.17981928  0.69307773     1.49480
O557        O  0.07088764  0.16051544  0.72371628    -1.83130
O558        O  0.02563657  0.19171215  0.77001332    -0.73760
O559        O  0.07950805  0.12764004  0.80527023    -0.73580
O560        O  0.02965199  0.11744994  0.68696978    -0.73100
O561        O  0.05512130  0.18254314  0.81650339    -0.73780
O562        O  0.01005228  0.15467736  0.69829168    -0.73380
O563        O  0.07231112  0.10004981  0.75457827    -0.73960
O564        O  0.11236696  0.15750007  0.65042387    -0.73350
O565        O  0.11412153  0.17694852  0.78916590    -0.74110
O566        O  0.09613165  0.11833505  0.66130015    -0.73500
O567        O  0.12768091  0.18944049  0.72800835    -0.73970
O568        O  0.08212030  0.21181074  0.66674834    -0.73870
O569        O  0.04052074  0.20631675  0.67921323    -0.73660
C570        C  0.03354926  0.19205146  0.80672461     0.78130
C571        C  0.07524308  0.10505112  0.79251763     0.78620
C572        C  0.00913296  0.13113160  0.68870247     0.77580
C573        C  0.11169906  0.13359992  0.64294410     0.77950
C574        C  0.13112511  0.18659899  0.76617157     0.79090
C575        C  0.05878079  0.21880055  0.66320687     0.78140
Zn576      Zn  0.14056134  0.11730844  0.52130632     1.49720
Zn577      Zn  0.19748735  0.10548756  0.50489675     1.49360
Zn578      Zn  0.18090124  0.09613530  0.59318997     1.49110
Zn579      Zn  0.16471474  0.05932903  0.51108851     1.49480
O580        O  0.16982321  0.09421211  0.53422655    -1.83130
O581        O  0.14869796  0.14719286  0.97937768    -0.73760
O582        O  0.22456071  0.11713570  0.53876691    -0.73580
O583        O  0.15001526  0.11200752  0.62351552    -0.73100
O584        O  0.18823036  0.13335142  0.97067437    -0.73780
O585        O  0.12506347  0.12901438  0.57464483    -0.73380
O586        O  0.21774907  0.11531705  0.60470043    -0.73960
O587        O  0.17210743  0.03598054  0.55713240    -0.73350
O588        O  0.21206806  0.08138320  0.96717435    -0.74110
O589        O  0.18357664  0.05892130  0.61224305    -0.73500
O590        O  0.18766165  0.04729429  0.96197198    -0.73970
O591        O  0.12838814  0.05577909  0.99206001    -0.73870
O592        O  0.11288198  0.09565029  0.49654148    -0.73660
C593        C  0.17035614  0.14850667  0.96124992     0.78130
C594        C  0.23238006  0.12120698  0.57461999     0.78620
C595        C  0.12974097  0.12398962  0.61208291     0.77580
C596        C  0.17958496  0.03754835  0.59410810     0.77950
C597        C  0.20696322  0.06023676  0.95029270     0.79090
C598        C  0.11047442  0.07208787  0.98706882     0.78140
Zn599      Zn  0.28042651  0.29293600  0.59806452     1.49720
Zn600      Zn  0.29610269  0.33492834  0.66141871     1.49360
Zn601      Zn  0.24298074  0.30566720  0.67428352     1.49110
Zn602      Zn  0.29781163  0.27604407  0.68672499     1.49480
O603        O  0.27881023  0.30230760  0.65565535    -1.83130
O604        O  0.30053853  0.31716006  0.56173690    -0.73760
O605        O  0.27337066  0.36327111  0.68071915    -0.73580
O606        O  0.21845509  0.30136951  0.62532963    -0.73100
O607        O  0.30924540  0.34716989  0.60756040    -0.73780
O608        O  0.24565318  0.29348338  0.57439501    -0.73380
O609        O  0.23608303  0.34383004  0.69226802    -0.73960
O610        O  0.27554208  0.26132426  0.72994947    -0.73350
O611        O  0.32553471  0.33227589  0.69855474    -0.74110
O612        O  0.23642435  0.27741160  0.71820240    -0.73500
O613        O  0.33019800  0.29068734  0.71222117    -0.73970
O614        O  0.30664459  0.24496999  0.65242908    -0.73870
O615        O  0.29421955  0.25844404  0.59115790    -0.73660
C616        C  0.30959018  0.33901487  0.57095172     0.78130
C617        C  0.24980732  0.36429899  0.69028778     0.78620
C618        C  0.22322728  0.29814724  0.58741310     0.77580
C619        C  0.25159329  0.26195995  0.73699889     0.77950
C620        C  0.33773220  0.31389836  0.71495707     0.79090
C621        C  0.30355516  0.24136846  0.61436559     0.78140
Zn622      Zn  0.21378627  0.19281418  0.78613778     1.49720
Zn623      Zn  0.22316974  0.17589336  0.87426535     1.49360
Zn624      Zn  0.23501214  0.23284867  0.85840647     1.49110
Zn625      Zn  0.17696232  0.20882723  0.86805694     1.49480
O626        O  0.21192478  0.20367020  0.84513434    -1.83130
O627        O  0.23312456  0.15614295  0.77415973    -0.73760
O628        O  0.25098976  0.18505168  0.90896830    -0.73580
O629        O  0.24690790  0.24839566  0.80519419    -0.73100
O630        O  0.23497219  0.14897717  0.84001628    -0.73780
O631        O  0.22958357  0.22383852  0.75610082    -0.73380
O632        O  0.26485628  0.22459961  0.90048644    -0.73960
O633        O  0.17331627  0.24497912  0.88739304    -0.73350
O634        O  0.19865439  0.16118689  0.91131855    -0.74110
O635        O  0.21320493  0.26045497  0.88319874    -0.73500
O636        O  0.16460409  0.18568694  0.91647815    -0.73970
O637        O  0.15354013  0.20150213  0.82237338    -0.73870
O638        O  0.17652484  0.18979239  0.76748051    -0.73660
C639        C  0.23907751  0.14137028  0.80404194     0.78130
C640        C  0.26614889  0.20290871  0.91855618     0.78620
C641        C  0.24179153  0.24393083  0.76772011     0.77580
C642        C  0.18962164  0.26284595  0.89259899     0.77950
C643        C  0.17738476  0.16622856  0.92790243     0.79090
C644        C  0.15514065  0.19369852  0.78562797     0.78140
Zn645      Zn  0.39382883  0.07350574  0.68911648     1.49720
Zn646      Zn  0.41279857  0.08664536  0.77825350     1.49360
Zn647      Zn  0.45336473  0.07296436  0.71385440     1.49110
Zn648      Zn  0.42491568  0.12678784  0.70536444     1.49480
O649        O  0.42108349  0.09053266  0.72065992    -1.83130
O650        O  0.36297835  0.06439757  0.72447094    -0.73760
O651        O  0.43397665  0.06128723  0.81051862    -0.73580
O652        O  0.44868808  0.04330707  0.67824906    -0.73100
O653        O  0.37691676  0.07724410  0.78530108    -0.73780
O654        O  0.40766212  0.04256529  0.65870356    -0.73380
O655        O  0.46667620  0.06081907  0.76750533    -0.73960
O656        O  0.46305444  0.13311447  0.68786765    -0.73350
O657        O  0.41895894  0.11973867  0.80630554    -0.74110
O658        O  0.48202108  0.09499831  0.69336198    -0.73500
O659        O  0.42281821  0.14917301  0.75736965    -0.73970
O660        O  0.39613343  0.13578182  0.66201639    -0.73870
O661        O  0.37893064  0.09738578  0.64882418    -0.73660
C662        C  0.35943956  0.06834592  0.76242820     0.78130
C663        C  0.45731667  0.05667573  0.80267100     0.78620
C664        C  0.43028569  0.03328112  0.65853412     0.77580
C665        C  0.48331126  0.11902554  0.68748526     0.77950
C666        C  0.42274287  0.14275815  0.79511343     0.79090
C667        C  0.38005909  0.12138577  0.64280058     0.78140
Zn668      Zn  0.32623547  0.19608879  0.51271655     1.49720
Zn669      Zn  0.30998080  0.15866875  0.59413404     1.49360
Zn670      Zn  0.29323473  0.14978227  0.50513153     1.49110
Zn671      Zn  0.34945907  0.13780862  0.52147984     1.49480
O672        O  0.32069464  0.16091213  0.53506393    -1.83130
O673        O  0.31804808  0.21891467  0.55827482    -0.73760
O674        O  0.27322207  0.13906726  0.60498745    -0.73580
O675        O  0.27855245  0.17461358  0.96865753    -0.73100
O676        O  0.30666984  0.19587663  0.61326678    -0.73780
O677        O  0.30346062  0.20838769  0.96344033    -0.73380
O678        O  0.26635075  0.13772726  0.53896150    -0.73960
O679        O  0.34152818  0.10759059  0.97981129    -0.73350
O680        O  0.34140459  0.14314871  0.62438083    -0.74110
O681        O  0.30244783  0.12221251  0.96968883    -0.73500
O682        O  0.36626455  0.12702075  0.57472086    -0.73970
O683        O  0.37552226  0.15991105  0.49477498    -0.73870
O684        O  0.36299531  0.20085231  0.99620500    -0.73660
C685        C  0.31038699  0.21727842  0.59503753     0.78130
C686        C  0.25859307  0.13335217  0.57475494     0.78620
C687        C  0.28382614  0.19581564  0.95203414     0.77580
C688        C  0.32019302  0.10677648  0.96064801     0.77950
C689        C  0.36190760  0.13173819  0.61240231     0.79090
C690        C  0.37949770  0.18364231  0.98794273     0.78140
Zn691      Zn  0.01824124  0.33042631  0.62710240     1.49720
Zn692      Zn  0.00676258  0.27299061  0.60823164     1.49360
Zn693      Zn  0.02769671  0.31340467  0.53928162     1.49110
Zn694      Zn  0.06485213  0.29581151  0.61791094     1.49480
O695        O  0.02972090  0.30238438  0.59692390    -1.83130
O696        O  0.48868490  0.32001937  0.65685358    -0.73760
O697        O  0.49572114  0.25725629  0.55481109    -0.73580
O698        O  0.00762334  0.34881884  0.53125790    -0.73100
O699        O  0.47604697  0.28005801  0.64769909    -0.73780
O700        O  0.00951277  0.36090443  0.59596576    -0.73380
O701        O  0.01257940  0.28253676  0.50647491    -0.73960
O702        O  0.08878658  0.30411417  0.57257820    -0.73350
O703        O  0.02823661  0.24638584  0.63516131    -0.74110
O704        O  0.06458484  0.31978574  0.52169556    -0.73500
O705        O  0.06912905  0.25897967  0.63408449    -0.73970
O706        O  0.07583668  0.31767397  0.66847606    -0.73870
O707        O  0.04135024  0.34217024  0.66898904    -0.73660
C708        C  0.47368049  0.30173152  0.66522089     0.78130
C709        C  0.50052810  0.26215899  0.51742684     0.78620
C710        C  0.00427522  0.36578839  0.55917124     0.77580
C711        C  0.08636362  0.31456869  0.53764144     0.77950
C712        C  0.05193680  0.24246890  0.64230393     0.79090
C713        C  0.06291425  0.33616040  0.68344591     0.78140
Zn714      Zn  0.49787751  0.19849941  0.92709789     1.49720
Zn715      Zn  0.44538425  0.16821075  0.91648779     1.49360
Zn716      Zn  0.44327839  0.22818666  0.93861117     1.49110
Zn717      Zn  0.45857877  0.20834587  0.85088637     1.49480
O718        O  0.46174953  0.20102906  0.90898902    -1.83130
O719        O  0.00567563  0.16189919  0.95042981    -0.73760
O720        O  0.41578016  0.17187962  0.95204315    -0.73580
O721        O  0.46632433  0.24406142  0.98072836    -0.73100
O722        O  0.46871134  0.14172143  0.93944344    -0.73780
O723        O  0.00551956  0.22867734  0.96750181    -0.73380
O724        O  0.41087883  0.21362144  0.96480049    -0.73960
O725        O  0.44584159  0.24324221  0.84110017    -0.73350
O726        O  0.43279178  0.15304051  0.86346425    -0.74110
O727        O  0.43419281  0.25829092  0.90181903    -0.73500
O728        O  0.43718606  0.18375998  0.81741920    -0.73970
O729        O  0.49263733  0.20480329  0.82607644    -0.73870
O730        O  0.02101568  0.19901532  0.87618070    -0.73660
C731        C  0.49223108  0.14130612  0.94937381     0.78130
C732        C  0.40341519  0.19035470  0.96772579     0.78620
C733        C  0.49048118  0.24412653  0.98655350     0.77580
C734        C  0.43691603  0.26100020  0.86344296     0.77950
C735        C  0.43041310  0.16117102  0.82700810     0.79090
C736        C  0.01527216  0.20012713  0.83825285     0.78140
Zn737      Zn  0.31372803  0.54717262  0.36507703     1.49720
Zn738      Zn  0.27652985  0.56377945  0.28346346     1.49360
Zn739      Zn  0.25529697  0.52429588  0.35570239     1.49110
Zn740      Zn  0.26774300  0.58031123  0.37272615     1.49480
O741        O  0.27870622  0.55292157  0.34251168    -1.83130
O742        O  0.33668752  0.55512258  0.31919247    -0.73760
O743        O  0.26082236  0.53248322  0.25304289    -0.73580
O744        O  0.27678971  0.99792028  0.38255449    -0.73100
O745        O  0.31379059  0.56658656  0.26404615    -0.73780
O746        O  0.31780614  0.51021275  0.38132529    -0.73380
O747        O  0.24459848  0.50756904  0.30252906    -0.73960
O748        O  0.24014039  0.57113009  0.40792920    -0.73350
O749        O  0.25701927  0.60071092  0.27307846    -0.74110
O750        O  0.22510378  0.53230410  0.39697617    -0.73500
O751        O  0.25572145  0.60726664  0.33918181    -0.73970
O752        O  0.29235353  0.59485914  0.40960876    -0.73870
O753        O  0.32589543  0.56967166  0.41510934    -0.73660
C754        C  0.33516165  0.56255641  0.28223518     0.78130
C755        C  0.24938795  0.51196680  0.26490717     0.78620
C756        C  0.30046823  0.99378412  0.38939930     0.77580
C757        C  0.22450757  0.55349106  0.41650822     0.77950
C758        C  0.25130896  0.61519111  0.30350147     0.79090
C759        C  0.31335425  0.58932458  0.42664135     0.78140
Zn760      Zn  0.20520841  0.96040069  0.09948233     1.49720
Zn761      Zn  0.24517514  0.94851522  0.17270119     1.49360
Zn762      Zn  0.19138907  0.97953369  0.18805387     1.49110
Zn763      Zn  0.19142548  0.91993738  0.16431252     1.49480
O764        O  0.20887286  0.95225551  0.15711076    -1.83130
O765        O  0.23847381  0.95443373  0.07189624    -0.73760
O766        O  0.25372182  0.97752519  0.21583125    -0.73580
O767        O  0.18184606  0.50996925  0.15209149    -0.73100
O768        O  0.26787889  0.95051416  0.12086546    -0.73780
O769        O  0.19513411  0.99605178  0.09153135    -0.73380
O770        O  0.21522678  0.99486375  0.22809285    -0.73960
O771        O  0.16181376  0.92459482  0.19964890    -0.73350
O772        O  0.25166067  0.91043487  0.19075713    -0.74110
O773        O  0.16026352  0.96573434  0.21829385    -0.73500
O774        O  0.21364643  0.89134521  0.18479982    -0.73970
O775        O  0.17858883  0.90659465  0.11124491    -0.73870
O776        O  0.18015960  0.93891356  0.06751034    -0.73660
C777        C  0.26149657  0.95062913  0.08310223     0.78130
C778        C  0.23920258  0.99374962  0.23449652     0.78620
C779        C  0.18573673  0.51340658  0.11409845     0.77580
C780        C  0.15129763  0.94298488  0.21864418     0.77950
C781        C  0.23764788  0.89013045  0.19107762     0.79090
C782        C  0.17467717  0.91585299  0.07595404     0.78140
Zn783      Zn  0.32596845  0.91375729  0.02616799     1.49720
Zn784      Zn  0.28569823  0.92764926  0.46137347     1.49360
Zn785      Zn  0.34516863  0.93061403  0.43897131     1.49110
Zn786      Zn  0.31643022  0.87505932  0.45029233     1.49480
O787        O  0.31846040  0.91128105  0.46823530    -1.83130
O788        O  0.30262630  0.93647581  0.06015352    -0.73760
O789        O  0.28869896  0.95748521  0.42564828    -0.73580
O790        O  0.37381053  0.94185884  0.47673995    -0.73100
O791        O  0.27128679  0.94006140  0.01490959    -0.73780
O792        O  0.36180299  0.92331163  0.03487792    -0.73380
O793        O  0.33028273  0.96227898  0.41192129    -0.73960
O794        O  0.34671029  0.86831537  0.40932701    -0.73350
O795        O  0.25930922  0.90394593  0.43935819    -0.74110
O796        O  0.36254365  0.90756649  0.39765329    -0.73500
O797        O  0.27973180  0.86715431  0.42755354    -0.73970
O798        O  0.31726804  0.85131932  0.50114940    -0.73870
O799        O  0.32098635  0.88011104  0.05093170    -0.73660
C800        C  0.27981343  0.94289226  0.05106230     0.78130
C801        C  0.30705881  0.96979880  0.40948744     0.78620
C802        C  0.37815049  0.93527038  0.01349925     0.77580
C803        C  0.36250013  0.88344829  0.39107591     0.77950
C804        C  0.25903788  0.88043454  0.42934059     0.79090
C805        C  0.31730867  0.85728372  0.03905952     0.78140
Zn806      Zn  0.44917882  0.85365709  0.25258002     1.49720
Zn807      Zn  0.43122256  0.84357772  0.34097052     1.49360
Zn808      Zn  0.39268058  0.86529558  0.26994672     1.49110
Zn809      Zn  0.41485721  0.80661035  0.26055340     1.49480
O810        O  0.42112708  0.84194143  0.28247819    -1.83130
O811        O  0.47923234  0.86171938  0.28381516    -0.73760
O812        O  0.40090405  0.86090626  0.37224139    -0.73580
O813        O  0.40156540  0.89424479  0.22820172    -0.73100
O814        O  0.46824391  0.86126404  0.34912667    -0.73780
O815        O  0.44159059  0.88204819  0.21687742    -0.73380
O816        O  0.37647633  0.87782795  0.32285231    -0.73960
O817        O  0.37793860  0.80292497  0.24375333    -0.73350
O818        O  0.43378840  0.80648187  0.36089679    -0.74110
O819        O  0.36578497  0.84399697  0.24315817    -0.73500
O820        O  0.42289114  0.78313230  0.30609550    -0.73970
O821        O  0.43712648  0.79423127  0.21083864    -0.73870
O822        O  0.46016600  0.82925169  0.21456944    -0.73660
C823        C  0.48482625  0.86533859  0.32076504     0.78130
C824        C  0.38091148  0.87333148  0.36056286     0.78620
C825        C  0.42268697  0.89620155  0.20869150     0.77580
C826        C  0.36160132  0.82037446  0.23572100     0.77950
C827        C  0.43029183  0.78493915  0.34303500     0.79090
C828        C  0.45565252  0.80793432  0.19824646     0.78140
Zn829      Zn  0.00659501  0.52461007  0.39748169     1.49720
Zn830      Zn  0.02854116  0.56420298  0.46520443     1.49360
Zn831      Zn  0.06507938  0.54553022  0.38666077     1.49110
Zn832      Zn  0.01911521  0.58116413  0.37548744     1.49480
O833        O  0.03013959  0.55326372  0.40738061    -1.83130
O834        O  0.49546809  0.50903719  0.45124072    -0.73760
O835        O  0.06540703  0.57004649  0.48210821    -0.73580
O836        O  0.06782323  0.50845644  0.37061127    -0.73100
O837        O  0.01326085  0.53372533  0.99934940    -0.73780
O838        O  0.02661683  0.99692651  0.37017501    -0.73380
O839        O  0.08939302  0.55306123  0.43211632    -0.73960
O840        O  0.04421974  0.59426886  0.33826777    -0.73350
O841        O  0.00962131  0.60010887  0.47284370    -0.74110
O842        O  0.07696554  0.56747636  0.33648055    -0.73500
O843        O  0.00857492  0.61055432  0.40725041    -0.73970
O844        O  0.49112203  0.57152913  0.34011872    -0.73870
O845        O  0.47653168  0.53326062  0.35843633    -0.73660
C846        C  0.50072248  0.51359099  0.48860627     0.78130
C847        C  0.08708871  0.56414965  0.46657878     0.78620
C848        C  0.05016499  0.99229669  0.36295074     0.77580
C849        C  0.06541962  0.58743783  0.32349579     0.77950
C850        C  0.00484388  0.61624177  0.44421632     0.79090
C851        C  0.47557078  0.55317737  0.33583041     0.78140
Zn852      Zn  0.44208869  0.97741805  0.06320375     1.49720
Zn853      Zn  0.44398315  0.91762799  0.08555934     1.49360
Zn854      Zn  0.49703460  0.94821485  0.07747137     1.49110
Zn855      Zn  0.45638158  0.95743648  0.14983987     1.49480
O856        O  0.46049590  0.95023804  0.09231469    -1.83130
O857        O  0.41239994  0.96279962  0.03120931    -0.73760
O858        O  0.46748017  0.89104736  0.06124929    -0.73580
O859        O  0.00522229  0.97892883  0.03724864    -0.73100
O860        O  0.41279837  0.92208779  0.05244242    -0.73780
O861        O  0.46641876  0.49584437  0.02563863    -0.73380
O862        O  0.00486807  0.91146817  0.05480715    -0.73960
O863        O  0.48852431  0.94926861  0.17857373    -0.73350
O864        O  0.43324809  0.90344645  0.14031587    -0.74110
O865        O  0.01885747  0.94821123  0.13074985    -0.73980
O866        O  0.42907950  0.93743911  0.18011985    -0.73970
O867        O  0.44941484  0.99351398  0.15833065    -0.73870
O868        O  0.42827732  0.50469164  0.10207112    -0.73660
C869        C  0.40266959  0.94040740  0.03255187     0.78130
C870        C  0.49143111  0.89082836  0.05371883     0.78620
C871        C  0.49054339  0.99540453  0.01944652     0.77580
C872        C  0.01177993  0.94641714  0.16813683     0.77950
C873        C  0.42679308  0.91353448  0.17420770     0.79090
C874        C  0.43588069  0.50926119  0.13830274     0.78140
Zn875      Zn  0.03591576  0.92524569  0.29130922     1.49720
Zn876      Zn  0.06770305  0.87285470  0.30278122     1.49360
Zn877      Zn  0.07701565  0.91098262  0.22646138     1.49110
Zn878      Zn  0.09530132  0.92952835  0.31326033     1.49480
O879        O  0.06905676  0.90916058  0.28435624    -1.83130
O880        O  0.01014201  0.90152906  0.31587003    -0.73760
O881        O  0.07074318  0.84834933  0.25279697    -0.73580
O882        O  0.05244728  0.93159750  0.19163927    -0.73100
O883        O  0.03072654  0.86455678  0.32544973    -0.73780
O884        O  0.02125178  0.93646070  0.23689614    -0.73380
O885        O  0.07545504  0.87660877  0.20242766    -0.73960
O886        O  0.12311140  0.94291291  0.27549412    -0.73350
O887        O  0.09774189  0.86722652  0.34389932    -0.74110
O888        O  0.11149763  0.92392558  0.21760987    -0.73500
O889        O  0.11367384  0.90667636  0.35358465    -0.73970
O890        O  0.07965866  0.96038079  0.34131757    -0.73870
O891        O  0.03828444  0.95600915  0.32598918    -0.73660
C892        C  0.01001062  0.87793203  0.32557330     0.78130
C893        C  0.07223463  0.85381614  0.21479313     0.78620
C894        C  0.02975989  0.93845642  0.20053359     0.77580
C895        C  0.12725689  0.93695579  0.23844297     0.77950
C896        C  0.11368730  0.88265570  0.36102259     0.79090
C897        C  0.05650311  0.96814994  0.34293670     0.78140
Zn898      Zn  0.16384939  0.80792533  0.49357954     1.49720
Zn899      Zn  0.14156307  0.86594064  0.48261373     1.49360
Zn900      Zn  0.19912014  0.85410033  0.00397074     1.49110
Zn901      Zn  0.18190369  0.84458643  0.41523094     1.49480
O902        O  0.17090081  0.84289075  0.47287949    -1.83130
O903        O  0.12754157  0.80549801  0.01272431    -0.73760
O904        O  0.14995262  0.89518466  0.02319355    -0.73580
O905        O  0.21158678  0.82974493  0.04314053    -0.73100
O906        O  0.11266413  0.84546865  0.00674089    -0.73780
O907        O  0.18655829  0.79565725  0.04213728    -0.73380
O908        O  0.18984004  0.88302779  0.03713372    -0.73960
O909        O  0.21749045  0.86364737  0.40690678    -0.73350
O910        O  0.12725040  0.87860098  0.42921380    -0.74110
O911        O  0.22896245  0.86337825  0.47202899    -0.73500
O912        O  0.15163632  0.85994410  0.38153679    -0.73970
O913        O  0.18782569  0.80784942  0.39815334    -0.73870
O914        O  0.17031797  0.78371578  0.44751638    -0.73660
C915        C  0.10981935  0.82207613  0.01689868     0.78130
C916        C  0.17084550  0.89752617  0.04317925     0.78620
C917        C  0.20555157  0.80798390  0.05667693     0.77580
C918        C  0.23414181  0.86764535  0.43501853     0.77950
C919        C  0.13187067  0.87307374  0.39203497     0.79090
C920        C  0.18165221  0.78613698  0.41326841     0.78140
Zn921      Zn  0.03817585  0.67757285  0.21716222     1.49720
Zn922      Zn  0.07989281  0.66242612  0.28135984     1.49360
Zn923      Zn  0.06779714  0.62455802  0.20530823     1.49110
Zn924      Zn  0.09708335  0.67981911  0.19307775     1.49480
O925        O  0.07088744  0.66051520  0.22371635    -1.83130
O926        O  0.02563663  0.69171209  0.27001360    -0.73760
O927        O  0.07950714  0.62763934  0.30527054    -0.73580
O928        O  0.02965180  0.61745007  0.18696921    -0.73100
O929        O  0.05512132  0.68254283  0.31650362    -0.73780
O930        O  0.01005217  0.65467747  0.19829185    -0.73380
O931        O  0.07231010  0.60004939  0.25457825    -0.73960
O932        O  0.11236703  0.65749980  0.15042424    -0.73350
O933        O  0.11412152  0.67694758  0.28916589    -0.74110
O934        O  0.09613184  0.61833473  0.16130043    -0.73500
O935        O  0.12768050  0.68944045  0.22800854    -0.73970
O936        O  0.08212013  0.71181057  0.16674796    -0.73870
O937        O  0.04052060  0.70631690  0.17921334    -0.73660
C938        C  0.03354932  0.69205128  0.30672490     0.78130
C939        C  0.07524189  0.60505051  0.29251772     0.78620
C940        C  0.00913280  0.63113178  0.18870227     0.77580
C941        C  0.11169932  0.63359964  0.14294456     0.77950
C942        C  0.13112491  0.68659849  0.26617163     0.79090
C943        C  0.05878065  0.71880056  0.16320668     0.78140
Zn944      Zn  0.14056265  0.61730899  0.02130696     1.49720
Zn945      Zn  0.19748838  0.60548796  0.00489708     1.49360
Zn946      Zn  0.18090206  0.59613550  0.09319068     1.49110
Zn947      Zn  0.16471608  0.55932946  0.01108887     1.49480
O948        O  0.16982436  0.59421250  0.03422709    -1.83130
O949        O  0.14869669  0.64719204  0.47937645    -0.73760
O950        O  0.22456139  0.61713608  0.03876761    -0.73580
O951        O  0.15001583  0.61200749  0.12351626    -0.73100
O952        O  0.18822933  0.63335101  0.47067411    -0.73780
O953        O  0.12506418  0.62901434  0.07464542    -0.73380
O954        O  0.21774984  0.61531732  0.10470117    -0.73960
O955        O  0.17210817  0.53598080  0.05713269    -0.73350
O956        O  0.21206679  0.58138275  0.46717397    -0.74110
O957        O  0.18357743  0.55892140  0.11224349    -0.73500
O958        O  0.18766020  0.54729399  0.46197114    -0.73970
O959        O  0.12838644  0.55577841  0.49206086    -0.73870
O960        O  0.11288379  0.59565101  0.99654084    -0.73660
C961        C  0.17035505  0.64850609  0.46124924     0.78130
C962        C  0.23238075  0.62120734  0.07462067     0.78620
C963        C  0.12974148  0.62398946  0.11208353     0.77580
C964        C  0.17958561  0.53754850  0.09410845     0.77950
C965        C  0.20696190  0.56023640  0.45029211     0.79090
C966        C  0.11047254  0.57208707  0.48706999     0.78140
Zn967      Zn  0.28042699  0.79293659  0.09806458     1.49720
Zn968      Zn  0.29610288  0.83492861  0.16141918     1.49360
Zn969      Zn  0.24298088  0.80566719  0.17428341     1.49110
Zn970      Zn  0.29781179  0.77604428  0.18672518     1.49480
O971        O  0.27881047  0.80230785  0.15565551    -1.83130
O972        O  0.30053923  0.81716079  0.06173752    -0.73760
O973        O  0.27337074  0.86327118  0.18071962    -0.73580
O974        O  0.21845532  0.80136942  0.12532936    -0.73100
O975        O  0.30924598  0.84717049  0.10756127    -0.73780
O976        O  0.24565372  0.79348416  0.07439481    -0.73380
O977        O  0.23608306  0.84383001  0.19226785    -0.73960
O978        O  0.27554214  0.76132428  0.22994966    -0.73350
O979        O  0.32553477  0.83227618  0.19855527    -0.74110
O980        O  0.23642442  0.77741154  0.21820230    -0.73500
O981        O  0.33019823  0.79068760  0.21222127    -0.73970
O982        O  0.30664477  0.74497037  0.15242890    -0.73870
O983        O  0.29422003  0.75844464  0.09115766    -0.73660
C984        C  0.30959095  0.83901554  0.07095256     0.78130
C985        C  0.24980734  0.86429899  0.19028792     0.78620
C986        C  0.22322769  0.79814758  0.08741279     0.77580
C987        C  0.25159332  0.76195990  0.23699892     0.77950
C988        C  0.33773238  0.81389864  0.21495729     0.79090
C989        C  0.30355551  0.74136897  0.11436533     0.78140
Zn990      Zn  0.21378607  0.69281407  0.28613787     1.49720
Zn991      Zn  0.22316923  0.67589320  0.37426572     1.49360
Zn992      Zn  0.23501185  0.73284845  0.35840654     1.49110
Zn993      Zn  0.17696190  0.70882694  0.36805691     1.49480
O994        O  0.21192442  0.70367000  0.34513444    -1.83130
O995        O  0.23312444  0.65614289  0.27416010    -0.73760
O996        O  0.25098916  0.68505154  0.40896886    -0.73580
O997        O  0.24690772  0.74839555  0.30519426    -0.73100
O998        O  0.23497188  0.64897712  0.34001669    -0.73780
O999        O  0.22958346  0.72383845  0.25610081    -0.73380
O1000       O  0.26485598  0.72459933  0.40048649    -0.73960
O1001       O  0.17331589  0.74497873  0.38739335    -0.73350
O1002       O  0.19865366  0.66118652  0.41131848    -0.74110
O1003       O  0.21320456  0.76045461  0.38319899    -0.73500
O1004       O  0.16460329  0.68568648  0.41647766    -0.73970
O1005       O  0.15353982  0.70150190  0.32237328    -0.73870
O1006       O  0.17652463  0.68979208  0.26748057    -0.73660
C1007       C  0.23907733  0.64137026  0.30404238     0.78130
C1008       C  0.26614844  0.70290851  0.41855649     0.78620
C1009       C  0.24179145  0.74393075  0.26772013     0.77580
C1010       C  0.18962128  0.76284553  0.39259937     0.77950
C1011       C  0.17738388  0.66622807  0.42790199     0.79090
C1012       C  0.15514041  0.69369818  0.28562796     0.78140
Zn1013     Zn  0.39382859  0.57350583  0.18911609     1.49720
Zn1014     Zn  0.41279806  0.58664555  0.27825291     1.49360
Zn1015     Zn  0.45336444  0.57296463  0.21385418     1.49110
Zn1016     Zn  0.42491558  0.62678802  0.20536417     1.49480
O1017       O  0.42108318  0.59053285  0.22065951    -1.83130
O1018       O  0.36297804  0.56439741  0.22447052    -0.73760
O1019       O  0.43397564  0.56128693  0.31051774    -0.73580
O1020       O  0.44868809  0.54330784  0.17824817    -0.73100
O1021       O  0.37691618  0.57724460  0.28530046    -0.73780
O1022       O  0.40766212  0.54256557  0.15870280    -0.73380
O1023       O  0.46667543  0.56081856  0.26750491    -0.73960
O1024       O  0.46305429  0.63311470  0.18786714    -0.73350
O1025       O  0.41895881  0.61973871  0.30630518    -0.74110
O1026       O  0.48202091  0.59499861  0.19336248    -0.73500
O1027       O  0.42281820  0.64917313  0.25736941    -0.73970
O1028       O  0.39613342  0.63578205  0.16201626    -0.73870
O1029       O  0.37893051  0.59738604  0.14882402    -0.73660
C1030       C  0.35943911  0.56834605  0.26242770     0.78130
C1031       C  0.45731560  0.55667505  0.30267032     0.78620
C1032       C  0.43028583  0.53328174  0.15853319     0.77580
C1033       C  0.48331110  0.61902577  0.18748518     0.77950
C1034       C  0.42274286  0.64275819  0.29511315     0.79090
C1035       C  0.38005907  0.62138603  0.14280044     0.78140
Zn1036     Zn  0.32623582  0.69608906  0.01271637     1.49720
Zn1037     Zn  0.30998120  0.65866932  0.09413397     1.49360
Zn1038     Zn  0.29323504  0.64978261  0.00513150     1.49110
Zn1039     Zn  0.34945921  0.63780878  0.02147981     1.49480
O1040       O  0.32069494  0.66091248  0.03506381    -1.83130
O1041       O  0.31804838  0.71891514  0.05827448    -0.73760
O1042       O  0.27322266  0.63906782  0.10498790    -0.73580
O1043       O  0.27855231  0.67461322  0.46865741    -0.73100
O1044       O  0.30667024  0.69587718  0.11326656    -0.73780
O1045       O  0.30346014  0.70838758  0.46344071    -0.73380
O1046       O  0.26635134  0.63772759  0.03896197    -0.73960
O1047       O  0.34152803  0.60759038  0.47981131    -0.73350
O1048       O  0.34140488  0.64314933  0.12438071    -0.74110
O1049       O  0.30244759  0.62221216  0.46968912    -0.73500
O1050       O  0.36626451  0.62702082  0.07472079    -0.73970
O1051       O  0.37552256  0.65991104  0.99477514    -0.73870
O1052       O  0.36299494  0.70085229  0.49620501    -0.73660
C1053       C  0.31038733  0.71727894  0.09503723     0.78130
C1054       C  0.25859370  0.63335258  0.07475547     0.78620
C1055       C  0.28382580  0.69581540  0.45203431     0.77580
C1056       C  0.32019279  0.60677616  0.46064823     0.77950
C1057       C  0.36190769  0.63173850  0.11240219     0.79090
C1058       C  0.37949734  0.68364234  0.48794257     0.78140
Zn1059     Zn  0.01824143  0.83042680  0.12710179     1.49720
Zn1060     Zn  0.00676274  0.77299102  0.10823120     1.49360
Zn1061     Zn  0.02769701  0.81340524  0.03928118     1.49110
Zn1062     Zn  0.06485227  0.79581158  0.11791057     1.49480
O1063       O  0.02972109  0.80238478  0.09692344    -1.83130
O1064       O  0.48868480  0.82002006  0.15685262    -0.73760
O1065       O  0.49572125  0.75725693  0.05481058    -0.73580
O1066       O  0.00762422  0.84881979  0.03125742    -0.73100
O1067       O  0.47604717  0.78005853  0.14769853    -0.73780
O1068       O  0.00951377  0.86090530  0.09596528    -0.73380
O1069       O  0.01257940  0.78253748  0.00647439    -0.73960
O1070       O  0.08878684  0.80411425  0.07257794    -0.73350
O1071       O  0.02823657  0.74638601  0.13516097    -0.74110
O1072       O  0.06458519  0.81978592  0.02169524    -0.73500
O1073       O  0.06912905  0.75897965  0.13408410    -0.73970
O1074       O  0.07583675  0.81767392  0.16847584    -0.73870
O1075       O  0.04135037  0.84217027  0.16898881    -0.73660
C1076       C  0.47368050  0.80173211  0.16522005     0.78130
C1077       C  0.50052812  0.76215971  0.01742632     0.78620
C1078       C  0.00427643  0.86578943  0.05917074     0.77580
C1079       C  0.08636394  0.81456879  0.03764117     0.77950
C1080       C  0.05193674  0.74246894  0.14230361     0.79090
C1081       C  0.06291433  0.83616033  0.18344575     0.78140
Zn1082     Zn  0.49787731  0.69849877  0.42709813     1.49720
Zn1083     Zn  0.44538387  0.66821060  0.41648774     1.49360
Zn1084     Zn  0.44327829  0.72818659  0.43861107     1.49110
Zn1085     Zn  0.45857882  0.70834581  0.35088640     1.49480
O1086       O  0.46174938  0.70102884  0.40898907    -1.83130
O1087       O  0.00567504  0.66189829  0.45042946    -0.73760
O1088       O  0.41577963  0.67187971  0.45204260    -0.73580
O1089       O  0.46632435  0.74406115  0.48072829    -0.73100
O1090       O  0.46871040  0.64172097  0.43944408    -0.73780
O1091       O  0.00551946  0.72867642  0.46750259    -0.73380
O1092       O  0.41087859  0.71362150  0.46480050    -0.73960
O1093       O  0.44584170  0.74324222  0.34110003    -0.73350
O1094       O  0.43279162  0.65304044  0.36346405    -0.74110
O1095       O  0.43419288  0.75829099  0.40181882    -0.73500
O1096       O  0.43718620  0.68375993  0.31741908    -0.73970
O1097       O  0.49263744  0.70480325  0.32607671    -0.73870
O1098       O  0.02101565  0.69901485  0.37618105    -0.73660
C1099       C  0.49223020  0.64130539  0.44937401     0.78130
C1100       C  0.40341479  0.69035478  0.46772552     0.78620
C1101       C  0.49048115  0.74412586  0.48655396     0.77580
C1102       C  0.43691617  0.76100026  0.36344274     0.77950
C1103       C  0.43041312  0.66117098  0.32700790     0.79090
C1104       C  0.01527223  0.70012691  0.33825319     0.78140
Zn1105     Zn  0.31372830  0.54717271  0.86507720     1.49720
Zn1106     Zn  0.27653023  0.56377945  0.78346319     1.49360
Zn1107     Zn  0.25529746  0.52429596  0.85570225     1.49110
Zn1108     Zn  0.26774367  0.58031151  0.87272561     1.49480
O1109       O  0.27870664  0.55292163  0.84251142    -1.83130
O1110       O  0.33668783  0.55512274  0.81919291    -0.73760
O1111       O  0.26082269  0.53248319  0.75304267    -0.73580
O1112       O  0.27679021  0.99792025  0.88255421    -0.73100
O1113       O  0.31379106  0.56658646  0.76404628    -0.73780
O1114       O  0.31780660  0.51021287  0.88132519    -0.73380
O1115       O  0.24459864  0.50756917  0.80252891    -0.73960
O1116       O  0.24014147  0.57113038  0.90792933    -0.73350
O1117       O  0.25701960  0.60071096  0.77307796    -0.74110
O1118       O  0.22510467  0.53230441  0.89697654    -0.73500
O1119       O  0.25572171  0.60726667  0.83918126    -0.73970
O1120       O  0.29235425  0.59485996  0.90960759    -0.73870
O1121       O  0.32589541  0.56967163  0.91510978    -0.73660
C1122       C  0.33516206  0.56255642  0.78223555     0.78130
C1123       C  0.24938813  0.51196685  0.76490698     0.78620
C1124       C  0.30046874  0.99378418  0.88939909     0.77580
C1125       C  0.22450870  0.55349137  0.91650864     0.77950
C1126       C  0.25130917  0.61519113  0.80350095     0.79090
C1127       C  0.31335461  0.58932498  0.92664097     0.78140
Zn1128     Zn  0.20520783  0.96040059  0.59948229     1.49720
Zn1129     Zn  0.24517498  0.94851529  0.67270079     1.49360
Zn1130     Zn  0.19138900  0.97953384  0.68805386     1.49110
Zn1131     Zn  0.19142538  0.91993739  0.66431277     1.49480
O1132       O  0.20887264  0.95225555  0.65711075    -1.83130
O1133       O  0.23847303  0.95443351  0.57189577    -0.73760
O1134       O  0.25372180  0.97752529  0.71583086    -0.73580
O1135       O  0.18184592  0.50996933  0.65209138    -0.73100
O1136       O  0.26787838  0.95051419  0.62086467    -0.73780
O1137       O  0.19513348  0.99605163  0.59153110    -0.73380
O1138       O  0.21522680  0.99486384  0.72809286    -0.73960
O1139       O  0.16181349  0.92459503  0.69964881    -0.73350
O1140       O  0.25166066  0.91043490  0.69075659    -0.74110
O1141       O  0.16026337  0.96573459  0.71829369    -0.73500
O1142       O  0.21364635  0.89134526  0.68480040    -0.73970
O1143       O  0.17858897  0.90659441  0.61124515    -0.73870
O1144       O  0.18015886  0.93891341  0.56751070    -0.73660
C1145       C  0.26149584  0.95062896  0.58310152     0.78130
C1146       C  0.23920263  0.99374970  0.73449634     0.78620
C1147       C  0.18573627  0.51340651  0.61409822     0.77580
C1148       C  0.15129737  0.94298517  0.71864395     0.77950
C1149       C  0.23764787  0.89013049  0.69107758     0.79090
C1150       C  0.17467696  0.91585272  0.57595435     0.78140
Zn1151     Zn  0.32596713  0.91375659  0.52616718     1.49720
Zn1152     Zn  0.28569905  0.92764970  0.96137425     1.49360
Zn1153     Zn  0.34516948  0.93061445  0.93897161     1.49110
Zn1154     Zn  0.31643072  0.87505988  0.95029320     1.49480
O1155       O  0.31846131  0.91128160  0.96823614    -1.83130
O1156       O  0.30262540  0.93647548  0.56015259    -0.73760
O1157       O  0.28869966  0.95748550  0.92564877    -0.73580
O1158       O  0.37381169  0.94185966  0.97673958    -0.73100
O1159       O  0.27128581  0.94006094  0.51490883    -0.73780
O1160       O  0.36180159  0.92331025  0.53487772    -0.73380
O1161       O  0.33028335  0.96227912  0.91192105    -0.73960
O1162       O  0.34671066  0.86831555  0.90932813    -0.73350
O1163       O  0.25930985  0.90394640  0.93935922    -0.74110
O1164       O  0.36254426  0.90756652  0.89765395    -0.73500
O1165       O  0.27973232  0.86715483  0.92755411    -0.73970
O1166       O  0.31726840  0.85132010  0.00115033    -0.73870
O1167       O  0.32098463  0.88011049  0.55093064    -0.73660
C1168       C  0.27981253  0.94289194  0.55106146     0.78130
C1169       C  0.30705942  0.96979895  0.90948743     0.78620
C1170       C  0.37814916  0.93526917  0.51349949     0.77580
C1171       C  0.36250056  0.88344830  0.89107685     0.77950
C1172       C  0.25903842  0.88043508  0.92934127     0.79090
C1173       C  0.31730766  0.85728305  0.53905855     0.78140
Zn1174     Zn  0.44917836  0.85365683  0.75258022     1.49720
Zn1175     Zn  0.43122261  0.84357756  0.84097086     1.49360
Zn1176     Zn  0.39268010  0.86529507  0.76994760     1.49110
Zn1177     Zn  0.41485693  0.80661007  0.76055376     1.49480
O1178       O  0.42112682  0.84194111  0.78247867    -1.83130
O1179       O  0.47923183  0.86171996  0.78381503    -0.73760
O1180       O  0.40090439  0.86090624  0.87224210    -0.73580
O1181       O  0.40156450  0.89424444  0.72820302    -0.73100
O1182       O  0.46824399  0.86126388  0.84912675    -0.73780
O1183       O  0.44158949  0.88204761  0.71687755    -0.73380
O1184       O  0.37647613  0.87782736  0.82285322    -0.73960
O1185       O  0.37793837  0.80292466  0.74375327    -0.73350
O1186       O  0.43378843  0.80648175  0.86089702    -0.74110
O1187       O  0.36578453  0.84399659  0.74315881    -0.73500
O1188       O  0.42289074  0.78313215  0.80609593    -0.73970
O1189       O  0.43712637  0.79423084  0.71083933    -0.73870
O1190       O  0.46016586  0.82925130  0.71456996    -0.73660
C1191       C  0.48482601  0.86533895  0.82076486     0.78130
C1192       C  0.38091167  0.87333125  0.86056373     0.78620
C1193       C  0.42268584  0.89620106  0.70869222     0.77580
C1194       C  0.36160103  0.82037414  0.73572113     0.77950
C1195       C  0.43029163  0.78493905  0.84303531     0.79090
C1196       C  0.45565244  0.80793384  0.69824717     0.78140
Zn1197     Zn  0.00659618  0.52461147  0.89748257     1.49720
Zn1198     Zn  0.02854322  0.56420431  0.96520434     1.49360
Zn1199     Zn  0.06508067  0.54553075  0.88666026     1.49110
Zn1200     Zn  0.01911672  0.58116499  0.87548737     1.49480
O1201       O  0.03014116  0.55326477  0.90738069    -1.83130
O1202       O  0.49546998  0.50903887  0.95124197    -0.73760
O1203       O  0.06540908  0.57004790  0.98210685    -0.73580
O1204       O  0.06782375  0.50845687  0.87061081    -0.73100
O1205       O  0.01325820  0.53372393  0.49934855    -0.73780
O1206       O  0.02661717  0.99692754  0.87017513    -0.73380
O1207       O  0.08939478  0.55306170  0.93211539    -0.73960
O1208       O  0.04422155  0.59427002  0.83826877    -0.73350
O1209       O  0.00962333  0.60011014  0.97284370    -0.74110
O1210       O  0.07696658  0.56747658  0.83647962    -0.73500
O1211       O  0.00857566  0.61055497  0.90725020    -0.73970
O1212       O  0.49112399  0.57152970  0.84011773    -0.73870
O1213       O  0.47653236  0.53326227  0.85843838    -0.73660
C1214       C  0.50072486  0.51359251  0.98860736     0.78130
C1215       C  0.08709063  0.56415060  0.96657751     0.78620
C1216       C  0.05016522  0.99229738  0.86295044     0.77580
C1217       C  0.06542105  0.58743856  0.82349593     0.77950
C1218       C  0.00484506  0.61624266  0.94421614     0.79090
C1219       C  0.47557210  0.55317834  0.83583088     0.78140
Zn1220     Zn  0.44208691  0.97741701  0.56320464     1.49720
Zn1221     Zn  0.44398153  0.91762681  0.58555990     1.49360
Zn1222     Zn  0.49703285  0.94821362  0.57747075     1.49110
Zn1223     Zn  0.45638063  0.95743559  0.64984013     1.49480
O1224       O  0.46049432  0.95023689  0.59231495    -1.83130
O1225       O  0.41239803  0.96279854  0.53121099    -0.73760
O1226       O  0.46747872  0.89104595  0.56125094    -0.73580
O1227       O  0.00521998  0.97892727  0.53724731    -0.73100
O1228       O  0.41279703  0.92208633  0.55244238    -0.73780
O1229       O  0.46641647  0.49584313  0.52563837    -0.73380
O1230       O  0.00486628  0.91146702  0.55480643    -0.73960
O1231       O  0.48852353  0.94926767  0.67857326    -0.73350
O1232       O  0.43324617  0.90344582  0.64031645    -0.74110
O1233       O  0.01885631  0.94821034  0.63074877    -0.73980
O1234       O  0.42907866  0.93743851  0.68012069    -0.73970
O1235       O  0.44941449  0.99351321  0.65833114    -0.73870
O1236       O  0.42827615  0.50469077  0.60207240    -0.73660
C1237       C  0.40266807  0.94040613  0.53255251     0.78130
C1238       C  0.49142952  0.89082711  0.55371934     0.78620
C1239       C  0.49054102  0.99540302  0.51944547     0.77580
C1240       C  0.01177909  0.94641635  0.66813593     0.77950
C1241       C  0.42679168  0.91353395  0.67420843     0.79090
C1242       C  0.43588017  0.50926044  0.63830366     0.78140
Zn1243     Zn  0.03591547  0.92524627  0.79130871     1.49720
Zn1244     Zn  0.06770281  0.87285517  0.80278118     1.49360
Zn1245     Zn  0.07701535  0.91098284  0.72646081     1.49110
Zn1246     Zn  0.09530105  0.92952870  0.81325999     1.49480
O1247       O  0.06905646  0.90916101  0.78435583    -1.83130
O1248       O  0.01014174  0.90152946  0.81586924    -0.73760
O1249       O  0.07074281  0.84834971  0.75279705    -0.73580
O1250       O  0.05244669  0.93159711  0.69163816    -0.73100
O1251       O  0.03072632  0.86455730  0.82544989    -0.73780
O1252       O  0.02125149  0.93646089  0.73689539    -0.73380
O1253       O  0.07545523  0.87660884  0.70242744    -0.73960
O1254       O  0.12311110  0.94291321  0.77549377    -0.73350
O1255       O  0.09774181  0.86722697  0.84389918    -0.74110
O1256       O  0.11149724  0.92392612  0.71760935    -0.73500
O1257       O  0.11367374  0.90667680  0.85358437    -0.73970
O1258       O  0.07965842  0.96038115  0.84131714    -0.73870
O1259       O  0.03828414  0.95600994  0.82598873    -0.73660
C1260       C  0.01001037  0.87793250  0.82557294     0.78130
C1261       C  0.07223458  0.85381630  0.71479316     0.78620
C1262       C  0.02975934  0.93845610  0.70053261     0.77580
C1263       C  0.12725655  0.93695620  0.73844258     0.77950
C1264       C  0.11368728  0.88265614  0.86102233     0.79090
C1265       C  0.05650295  0.96815055  0.84293628     0.78140
Zn1266     Zn  0.16384974  0.80792564  0.99357922     1.49720
Zn1267     Zn  0.14156325  0.86594090  0.98261344     1.49360
Zn1268     Zn  0.19911992  0.85410001  0.50397094     1.49110
Zn1269     Zn  0.18190405  0.84458698  0.91523057     1.49480
O1270       O  0.17090108  0.84289110  0.97287912    -1.83130
O1271       O  0.12754121  0.80549785  0.51272459    -0.73760
O1272       O  0.14995247  0.89518438  0.52319383    -0.73580
O1273       O  0.21158651  0.82974460  0.54314077    -0.73100
O1274       O  0.11266383  0.84546851  0.50674108    -0.73780
O1275       O  0.18655788  0.79565699  0.54213763    -0.73380
O1276       O  0.18983989  0.88302752  0.53713400    -0.73960
O1277       O  0.21749099  0.86364794  0.90690686    -0.73350
O1278       O  0.12725040  0.87860120  0.92921355    -0.74110
O1279       O  0.22896275  0.86337870  0.97202917    -0.73500
O1280       O  0.15163657  0.85994478  0.88153641    -0.73970
O1281       O  0.18782601  0.80784988  0.89815289    -0.73870
O1282       O  0.17031836  0.78371620  0.94751597    -0.73660
C1283       C  0.10981901  0.82207600  0.51689889     0.78130
C1284       C  0.17084534  0.89752589  0.54317956     0.78620
C1285       C  0.20555120  0.80798360  0.55667724     0.77580
C1286       C  0.23414226  0.86764589  0.93501881     0.77950
C1287       C  0.13187076  0.87307419  0.89203466     0.79090
C1288       C  0.18165256  0.78613742  0.91326797     0.78140
Zn1289     Zn  0.03817592  0.67757281  0.71716210     1.49720
Zn1290     Zn  0.07989304  0.66242674  0.78135966     1.49360
Zn1291     Zn  0.06779736  0.62455824  0.70530833     1.49110
Zn1292     Zn  0.09708358  0.67981928  0.69307773     1.49480
O1293       O  0.07088763  0.66051543  0.72371629    -1.83130
O1294       O  0.02563657  0.69171214  0.77001333    -0.73760
O1295       O  0.07950806  0.62764004  0.80527024    -0.73580
O1296       O  0.02965198  0.61744994  0.68696978    -0.73100
O1297       O  0.05512130  0.68254313  0.81650340    -0.73780
O1298       O  0.01005227  0.65467735  0.69829169    -0.73380
O1299       O  0.07231112  0.60004981  0.75457828    -0.73960
O1300       O  0.11236695  0.65750007  0.65042387    -0.73350
O1301       O  0.11412153  0.67694852  0.78916590    -0.74110
O1302       O  0.09613165  0.61833505  0.66130015    -0.73500
O1303       O  0.12768090  0.68944049  0.72800835    -0.73970
O1304       O  0.08212029  0.71181074  0.66674834    -0.73870
O1305       O  0.04052073  0.70631675  0.67921324    -0.73660
C1306       C  0.03354926  0.69205145  0.80672463     0.78130
C1307       C  0.07524308  0.60505112  0.79251764     0.78620
C1308       C  0.00913295  0.63113160  0.68870247     0.77580
C1309       C  0.11169906  0.63359991  0.64294411     0.77950
C1310       C  0.13112511  0.68659899  0.76617157     0.79090
C1311       C  0.05878078  0.71880055  0.66320688     0.78140
Zn1312     Zn  0.14056134  0.61730844  0.52130633     1.49720
Zn1313     Zn  0.19748735  0.60548756  0.50489675     1.49360
Zn1314     Zn  0.18090124  0.59613530  0.59318998     1.49110
Zn1315     Zn  0.16471475  0.55932903  0.51108852     1.49480
O1316       O  0.16982321  0.59421211  0.53422656    -1.83130
O1317       O  0.14869797  0.64719285  0.97937768    -0.73760
O1318       O  0.22456071  0.61713570  0.53876692    -0.73580
O1319       O  0.15001526  0.61200752  0.62351553    -0.73100
O1320       O  0.18823036  0.63335142  0.97067436    -0.73780
O1321       O  0.12506347  0.62901437  0.57464484    -0.73380
O1322       O  0.21774907  0.61531705  0.60470044    -0.73960
O1323       O  0.17210743  0.53598054  0.55713240    -0.73350
O1324       O  0.21206807  0.58138320  0.96717435    -0.74110
O1325       O  0.18357664  0.55892129  0.61224306    -0.73500
O1326       O  0.18766166  0.54729429  0.96197197    -0.73970
O1327       O  0.12838815  0.55577909  0.99206001    -0.73870
O1328       O  0.11288199  0.59565029  0.49654148    -0.73660
C1329       C  0.17035615  0.64850667  0.96124991     0.78130
C1330       C  0.23238006  0.62120698  0.57462000     0.78620
C1331       C  0.12974097  0.62398962  0.61208292     0.77580
C1332       C  0.17958496  0.53754835  0.59410811     0.77950
C1333       C  0.20696323  0.56023676  0.95029270     0.79090
C1334       C  0.11047442  0.57208787  0.98706882     0.78140
Zn1335     Zn  0.28042650  0.79293600  0.59806452     1.49720
Zn1336     Zn  0.29610269  0.83492834  0.66141871     1.49360
Zn1337     Zn  0.24298073  0.80566720  0.67428352     1.49110
Zn1338     Zn  0.29781163  0.77604407  0.68672499     1.49480
O1339       O  0.27881023  0.80230760  0.65565535    -1.83130
O1340       O  0.30053853  0.81716006  0.56173690    -0.73760
O1341       O  0.27337066  0.86327111  0.68071914    -0.73580
O1342       O  0.21845508  0.80136951  0.62532963    -0.73100
O1343       O  0.30924540  0.84716989  0.60756041    -0.73780
O1344       O  0.24565317  0.79348337  0.57439501    -0.73380
O1345       O  0.23608303  0.84383004  0.69226802    -0.73960
O1346       O  0.27554208  0.76132426  0.72994947    -0.73350
O1347       O  0.32553471  0.83227589  0.69855475    -0.74110
O1348       O  0.23642435  0.77741160  0.71820240    -0.73500
O1349       O  0.33019799  0.79068733  0.71222117    -0.73970
O1350       O  0.30664459  0.74496999  0.65242908    -0.73870
O1351       O  0.29421954  0.75844404  0.59115790    -0.73660
C1352       C  0.30959019  0.83901486  0.57095172     0.78130
C1353       C  0.24980732  0.86429899  0.69028778     0.78620
C1354       C  0.22322727  0.79814724  0.58741311     0.77580
C1355       C  0.25159329  0.76195995  0.73699888     0.77950
C1356       C  0.33773220  0.81389836  0.71495708     0.79090
C1357       C  0.30355515  0.74136846  0.61436559     0.78140
Zn1358     Zn  0.21378626  0.69281418  0.78613778     1.49720
Zn1359     Zn  0.22316975  0.67589336  0.87426534     1.49360
Zn1360     Zn  0.23501214  0.73284867  0.85840647     1.49110
Zn1361     Zn  0.17696232  0.70882723  0.86805693     1.49480
O1362       O  0.21192477  0.70367019  0.84513434    -1.83130
O1363       O  0.23312455  0.65614294  0.77415972    -0.73760
O1364       O  0.25098976  0.68505168  0.90896830    -0.73580
O1365       O  0.24690790  0.74839566  0.80519418    -0.73100
O1366       O  0.23497219  0.64897717  0.84001628    -0.73780
O1367       O  0.22958357  0.72383852  0.75610082    -0.73380
O1368       O  0.26485628  0.72459961  0.90048643    -0.73960
O1369       O  0.17331627  0.74497911  0.88739304    -0.73350
O1370       O  0.19865440  0.66118689  0.91131855    -0.74110
O1371       O  0.21320493  0.76045497  0.88319873    -0.73500
O1372       O  0.16460409  0.68568693  0.91647814    -0.73970
O1373       O  0.15354013  0.70150213  0.82237337    -0.73870
O1374       O  0.17652484  0.68979239  0.76748051    -0.73660
C1375       C  0.23907751  0.64137028  0.80404193     0.78130
C1376       C  0.26614889  0.70290871  0.91855617     0.78620
C1377       C  0.24179153  0.74393083  0.76772010     0.77580
C1378       C  0.18962164  0.76284594  0.89259899     0.77950
C1379       C  0.17738476  0.66622856  0.92790243     0.79090
C1380       C  0.15514065  0.69369852  0.78562796     0.78140
Zn1381     Zn  0.39382884  0.57350574  0.68911648     1.49720
Zn1382     Zn  0.41279857  0.58664536  0.77825350     1.49360
Zn1383     Zn  0.45336473  0.57296436  0.71385440     1.49110
Zn1384     Zn  0.42491568  0.62678784  0.70536445     1.49480
O1385       O  0.42108349  0.59053266  0.72065992    -1.83130
O1386       O  0.36297836  0.56439757  0.72447093    -0.73760
O1387       O  0.43397665  0.56128722  0.81051862    -0.73580
O1388       O  0.44868808  0.54330707  0.67824906    -0.73100
O1389       O  0.37691677  0.57724411  0.78530108    -0.73780
O1390       O  0.40766213  0.54256529  0.65870356    -0.73380
O1391       O  0.46667620  0.56081907  0.76750533    -0.73960
O1392       O  0.46305445  0.63311447  0.68786765    -0.73350
O1393       O  0.41895895  0.61973867  0.80630555    -0.74110
O1394       O  0.48202108  0.59499831  0.69336198    -0.73500
O1395       O  0.42281822  0.64917301  0.75736966    -0.73970
O1396       O  0.39613343  0.63578182  0.66201640    -0.73870
O1397       O  0.37893064  0.59738578  0.64882418    -0.73660
C1398       C  0.35943956  0.56834592  0.76242820     0.78130
C1399       C  0.45731667  0.55667573  0.80267100     0.78620
C1400       C  0.43028569  0.53328112  0.65853413     0.77580
C1401       C  0.48331126  0.61902554  0.68748526     0.77950
C1402       C  0.42274288  0.64275814  0.79511343     0.79090
C1403       C  0.38005909  0.62138577  0.64280058     0.78140
Zn1404     Zn  0.32623547  0.69608879  0.51271655     1.49720
Zn1405     Zn  0.30998080  0.65866875  0.59413404     1.49360
Zn1406     Zn  0.29323472  0.64978228  0.50513153     1.49110
Zn1407     Zn  0.34945907  0.63780862  0.52147984     1.49480
O1408       O  0.32069464  0.66091213  0.53506394    -1.83130
O1409       O  0.31804807  0.71891467  0.55827482    -0.73760
O1410       O  0.27322207  0.63906726  0.60498746    -0.73580
O1411       O  0.27855246  0.67461358  0.96865752    -0.73100
O1412       O  0.30666984  0.69587663  0.61326678    -0.73780
O1413       O  0.30346062  0.70838770  0.96344032    -0.73380
O1414       O  0.26635075  0.63772726  0.53896151    -0.73960
O1415       O  0.34152819  0.60759059  0.97981128    -0.73350
O1416       O  0.34140459  0.64314871  0.62438084    -0.74110
O1417       O  0.30244784  0.62221251  0.96968882    -0.73500
O1418       O  0.36626454  0.62702075  0.57472086    -0.73970
O1419       O  0.37552225  0.65991105  0.49477498    -0.73870
O1420       O  0.36299532  0.70085231  0.99620498    -0.73660
C1421       C  0.31038699  0.71727842  0.59503753     0.78130
C1422       C  0.25859307  0.63335217  0.57475495     0.78620
C1423       C  0.28382615  0.69581564  0.95203413     0.77580
C1424       C  0.32019303  0.60677648  0.96064800     0.77950
C1425       C  0.36190760  0.63173819  0.61240231     0.79090
C1426       C  0.37949770  0.68364231  0.98794272     0.78140
Zn1427     Zn  0.01824124  0.83042631  0.62710240     1.49720
Zn1428     Zn  0.00676257  0.77299060  0.60823164     1.49360
Zn1429     Zn  0.02769671  0.81340467  0.53928162     1.49110
Zn1430     Zn  0.06485213  0.79581150  0.61791094     1.49480
O1431       O  0.02972089  0.80238438  0.59692390    -1.83130
O1432       O  0.48868489  0.82001937  0.65685357    -0.73760
O1433       O  0.49572114  0.75725628  0.55481109    -0.73580
O1434       O  0.00762333  0.84881883  0.53125790    -0.73100
O1435       O  0.47604697  0.78005800  0.64769909    -0.73780
O1436       O  0.00951276  0.86090443  0.59596576    -0.73380
O1437       O  0.01257940  0.78253676  0.50647491    -0.73960
O1438       O  0.08878658  0.80411416  0.57257820    -0.73350
O1439       O  0.02823660  0.74638584  0.63516131    -0.74110
O1440       O  0.06458484  0.81978574  0.52169556    -0.73500
O1441       O  0.06912904  0.75897967  0.63408449    -0.73970
O1442       O  0.07583668  0.81767397  0.66847606    -0.73870
O1443       O  0.04135025  0.84217024  0.66898904    -0.73660
C1444       C  0.47368048  0.80173152  0.66522089     0.78130
C1445       C  0.50052810  0.76215899  0.51742683     0.78620
C1446       C  0.00427521  0.86578838  0.55917124     0.77580
C1447       C  0.08636361  0.81456868  0.53764144     0.77950
C1448       C  0.05193680  0.74246890  0.64230393     0.79090
C1449       C  0.06291425  0.83616039  0.68344591     0.78140
Zn1450     Zn  0.49787752  0.69849942  0.92709789     1.49720
Zn1451     Zn  0.44538426  0.66821075  0.91648780     1.49360
Zn1452     Zn  0.44327840  0.72818666  0.93861117     1.49110
Zn1453     Zn  0.45857878  0.70834587  0.85088636     1.49480
O1454       O  0.46174954  0.70102906  0.90898902    -1.83130
O1455       O  0.00567562  0.66189918  0.95042983    -0.73760
O1456       O  0.41578016  0.67187962  0.95204314    -0.73580
O1457       O  0.46632434  0.74406142  0.98072836    -0.73100
O1458       O  0.46871135  0.64172144  0.93944346    -0.73780
O1459       O  0.00551955  0.72867734  0.96750181    -0.73380
O1460       O  0.41087883  0.71362145  0.96480048    -0.73960
O1461       O  0.44584159  0.74324221  0.84110016    -0.73350
O1462       O  0.43279179  0.65304051  0.86346426    -0.74110
O1463       O  0.43419282  0.75829093  0.90181903    -0.73500
O1464       O  0.43718607  0.68375998  0.81741921    -0.73970
O1465       O  0.49263734  0.70480330  0.82607643    -0.73870
O1466       O  0.02101568  0.69901531  0.87618071    -0.73660
C1467       C  0.49223109  0.64130612  0.94937381     0.78130
C1468       C  0.40341519  0.69035470  0.96772579     0.78620
C1469       C  0.49048119  0.74412653  0.98655350     0.77580
C1470       C  0.43691604  0.76100020  0.86344296     0.77950
C1471       C  0.43041311  0.66117101  0.82700811     0.79090
C1472       C  0.01527216  0.70012713  0.83825286     0.78140
Zn1473     Zn  0.81372803  0.04717262  0.36507704     1.49720
Zn1474     Zn  0.77652985  0.06377945  0.28346346     1.49360
Zn1475     Zn  0.75529697  0.02429588  0.35570239     1.49110
Zn1476     Zn  0.76774300  0.08031123  0.37272615     1.49480
O1477       O  0.77870622  0.05292157  0.34251168    -1.83130
O1478       O  0.83668752  0.05512258  0.31919247    -0.73760
O1479       O  0.76082237  0.03248322  0.25304289    -0.73580
O1480       O  0.77678970  0.49792028  0.38255449    -0.73100
O1481       O  0.81379060  0.06658656  0.26404616    -0.73780
O1482       O  0.81780614  0.01021275  0.38132529    -0.73380
O1483       O  0.74459848  0.00756904  0.30252905    -0.73960
O1484       O  0.74014039  0.07113009  0.40792920    -0.73350
O1485       O  0.75701927  0.10071092  0.27307846    -0.74110
O1486       O  0.72510378  0.03230410  0.39697616    -0.73500
O1487       O  0.75572145  0.10726664  0.33918181    -0.73970
O1488       O  0.79235353  0.09485914  0.40960876    -0.73870
O1489       O  0.82589543  0.06967165  0.41510934    -0.73660
C1490       C  0.83516165  0.06255641  0.28223518     0.78130
C1491       C  0.74938796  0.01196680  0.26490716     0.78620
C1492       C  0.80046823  0.49378413  0.38939930     0.77580
C1493       C  0.72450757  0.05349106  0.41650822     0.77950
C1494       C  0.75130896  0.11519111  0.30350147     0.79090
C1495       C  0.81335425  0.08932458  0.42664135     0.78140
Zn1496     Zn  0.70520842  0.46040069  0.09948234     1.49720
Zn1497     Zn  0.74517515  0.44851522  0.17270120     1.49360
Zn1498     Zn  0.69138908  0.47953369  0.18805387     1.49110
Zn1499     Zn  0.69142548  0.41993738  0.16431252     1.49480
O1500       O  0.70887286  0.45225551  0.15711076    -1.83130
O1501       O  0.73847381  0.45443373  0.07189624    -0.73760
O1502       O  0.75372183  0.47752519  0.21583125    -0.73580
O1503       O  0.68184606  0.00996925  0.15209149    -0.73100
O1504       O  0.76787890  0.45051416  0.12086546    -0.73780
O1505       O  0.69513411  0.49605178  0.09153135    -0.73380
O1506       O  0.71522679  0.49486375  0.22809285    -0.73960
O1507       O  0.66181376  0.42459482  0.19964890    -0.73350
O1508       O  0.75166067  0.41043487  0.19075713    -0.74110
O1509       O  0.66026352  0.46573434  0.21829384    -0.73500
O1510       O  0.71364643  0.39134521  0.18479983    -0.73970
O1511       O  0.67858883  0.40659465  0.11124491    -0.73870
O1512       O  0.68015960  0.43891356  0.06751034    -0.73660
C1513       C  0.76149657  0.45062912  0.08310223     0.78130
C1514       C  0.73920258  0.49374962  0.23449652     0.78620
C1515       C  0.68573673  0.01340658  0.11409844     0.77580
C1516       C  0.65129763  0.44298489  0.21864418     0.77950
C1517       C  0.73764788  0.39013045  0.19107762     0.79090
C1518       C  0.67467718  0.41585299  0.07595404     0.78140
Zn1519     Zn  0.82596846  0.41375729  0.02616800     1.49720
Zn1520     Zn  0.78569823  0.42764926  0.46137347     1.49360
Zn1521     Zn  0.84516863  0.43061403  0.43897130     1.49110
Zn1522     Zn  0.81643022  0.37505933  0.45029233     1.49480
O1523       O  0.81846040  0.41128105  0.46823530    -1.83130
O1524       O  0.80262630  0.43647581  0.06015353    -0.73760
O1525       O  0.78869896  0.45748521  0.42564828    -0.73580
O1526       O  0.87381053  0.44185884  0.47673994    -0.73100
O1527       O  0.77128679  0.44006140  0.01490959    -0.73780
O1528       O  0.86180299  0.42331163  0.03487792    -0.73380
O1529       O  0.83028273  0.46227898  0.41192129    -0.73960
O1530       O  0.84671028  0.36831537  0.40932701    -0.73350
O1531       O  0.75930922  0.40394594  0.43935819    -0.74110
O1532       O  0.86254364  0.40756649  0.39765329    -0.73500
O1533       O  0.77973179  0.36715431  0.42755354    -0.73970
O1534       O  0.81726804  0.35131932  0.50114940    -0.73870
O1535       O  0.82098635  0.38011104  0.05093171    -0.73660
C1536       C  0.77981343  0.44289226  0.05106230     0.78130
C1537       C  0.80705881  0.46979880  0.40948744     0.78620
C1538       C  0.87815049  0.43527038  0.01349925     0.77580
C1539       C  0.86250012  0.38344829  0.39107591     0.77950
C1540       C  0.75903788  0.38043455  0.42934059     0.79090
C1541       C  0.81730867  0.35728371  0.03905952     0.78140
Zn1542     Zn  0.94917882  0.35365708  0.25258002     1.49720
Zn1543     Zn  0.93122255  0.34357772  0.34097052     1.49360
Zn1544     Zn  0.89268058  0.36529557  0.26994672     1.49110
Zn1545     Zn  0.91485721  0.30661034  0.26055340     1.49480
O1546       O  0.92112708  0.34194143  0.28247819    -1.83130
O1547       O  0.97923234  0.36171937  0.28381517    -0.73760
O1548       O  0.90090404  0.36090626  0.37224139    -0.73580
O1549       O  0.90156540  0.39424479  0.22820171    -0.73100
O1550       O  0.96824391  0.36126404  0.34912667    -0.73780
O1551       O  0.94159059  0.38204819  0.21687742    -0.73380
O1552       O  0.87647633  0.37782795  0.32285231    -0.73960
O1553       O  0.87793860  0.30292496  0.24375334    -0.73350
O1554       O  0.93378840  0.30648187  0.36089679    -0.74110
O1555       O  0.86578497  0.34399697  0.24315817    -0.73500
O1556       O  0.92289114  0.28313230  0.30609550    -0.73970
O1557       O  0.93712648  0.29423127  0.21083864    -0.73870
O1558       O  0.96016600  0.32925169  0.21456944    -0.73660
C1559       C  0.98482624  0.36533859  0.32076505     0.78130
C1560       C  0.88091148  0.37333147  0.36056286     0.78620
C1561       C  0.92268697  0.39620154  0.20869150     0.77580
C1562       C  0.86160132  0.32037446  0.23572100     0.77950
C1563       C  0.93029183  0.28493915  0.34303500     0.79090
C1564       C  0.95565251  0.30793432  0.19824645     0.78140
Zn1565     Zn  0.50659501  0.02461007  0.39748169     1.49720
Zn1566     Zn  0.52854116  0.06420298  0.46520443     1.49360
Zn1567     Zn  0.56507938  0.04553022  0.38666077     1.49110
Zn1568     Zn  0.51911520  0.08116412  0.37548744     1.49480
O1569       O  0.53013959  0.05326372  0.40738061    -1.83130
O1570       O  0.99546809  0.00903719  0.45124072    -0.73760
O1571       O  0.56540703  0.07004649  0.48210821    -0.73580
O1572       O  0.56782324  0.00845644  0.37061127    -0.73100
O1573       O  0.51326084  0.03372534  0.99934940    -0.73780
O1574       O  0.52661682  0.49692651  0.37017501    -0.73380
O1575       O  0.58939302  0.05306123  0.43211632    -0.73960
O1576       O  0.54421973  0.09426886  0.33826776    -0.73350
O1577       O  0.50962131  0.10010887  0.47284369    -0.74110
O1578       O  0.57696554  0.06747636  0.33648056    -0.73500
O1579       O  0.50857492  0.11055432  0.40725040    -0.73970
O1580       O  0.99112203  0.07152913  0.34011873    -0.73870
O1581       O  0.97653168  0.03326062  0.35843633    -0.73660
C1582       C  0.00072248  0.01359099  0.48860627     0.78130
C1583       C  0.58708871  0.06414965  0.46657879     0.78620
C1584       C  0.55016498  0.49229669  0.36295073     0.77580
C1585       C  0.56541962  0.08743783  0.32349579     0.77950
C1586       C  0.50484388  0.11624177  0.44421631     0.79090
C1587       C  0.97557078  0.05317737  0.33583042     0.78140
Zn1588     Zn  0.94208869  0.47741805  0.06320375     1.49720
Zn1589     Zn  0.94398315  0.41762799  0.08555934     1.49360
Zn1590     Zn  0.99703461  0.44821485  0.07747137     1.49110
Zn1591     Zn  0.95638158  0.45743648  0.14983987     1.49480
O1592       O  0.96049590  0.45023804  0.09231469    -1.83130
O1593       O  0.91239994  0.46279962  0.03120931    -0.73760
O1594       O  0.96748017  0.39104736  0.06124929    -0.73580
O1595       O  0.50522228  0.47892883  0.03724864    -0.73100
O1596       O  0.91279837  0.42208779  0.05244243    -0.73780
O1597       O  0.96641877  0.99584437  0.02563863    -0.73380
O1598       O  0.50486806  0.41146816  0.05480714    -0.73960
O1599       O  0.98852431  0.44926861  0.17857373    -0.73350
O1600       O  0.93324809  0.40344645  0.14031587    -0.74110
O1601       O  0.51885746  0.44821123  0.13074985    -0.73980
O1602       O  0.92907949  0.43743910  0.18011985    -0.73970
O1603       O  0.94941484  0.49351398  0.15833066    -0.73870
O1604       O  0.92827733  0.00469164  0.10207112    -0.73660
C1605       C  0.90266960  0.44040740  0.03255187     0.78130
C1606       C  0.99143111  0.39082836  0.05371883     0.78620
C1607       C  0.99054339  0.49540452  0.01944652     0.77580
C1608       C  0.51177992  0.44641713  0.16813683     0.77950
C1609       C  0.92679308  0.41353448  0.17420770     0.79090
C1610       C  0.93588070  0.00926119  0.13830275     0.78140
Zn1611     Zn  0.53591576  0.42524569  0.29130921     1.49720
Zn1612     Zn  0.56770305  0.37285470  0.30278121     1.49360
Zn1613     Zn  0.57701564  0.41098262  0.22646137     1.49110
Zn1614     Zn  0.59530132  0.42952835  0.31326032     1.49480
O1615       O  0.56905676  0.40916058  0.28435624    -1.83130
O1616       O  0.51014201  0.40152906  0.31587002    -0.73760
O1617       O  0.57074318  0.34834934  0.25279696    -0.73580
O1618       O  0.55244727  0.43159750  0.19163926    -0.73100
O1619       O  0.53072654  0.36455678  0.32544972    -0.73780
O1620       O  0.52125177  0.43646070  0.23689613    -0.73380
O1621       O  0.57545505  0.37660877  0.20242766    -0.73960
O1622       O  0.62311140  0.44291291  0.27549411    -0.73350
O1623       O  0.59774189  0.36722652  0.34389932    -0.74110
O1624       O  0.61149763  0.42392559  0.21760986    -0.73500
O1625       O  0.61367384  0.40667636  0.35358465    -0.73970
O1626       O  0.57965866  0.46038079  0.34131757    -0.73870
O1627       O  0.53828443  0.45600916  0.32598917    -0.73660
C1628       C  0.51001062  0.37793203  0.32557329     0.78130
C1629       C  0.57223463  0.35381614  0.21479312     0.78620
C1630       C  0.52975988  0.43845641  0.20053359     0.77580
C1631       C  0.62725689  0.43695579  0.23844297     0.77950
C1632       C  0.61368730  0.38265570  0.36102258     0.79090
C1633       C  0.55650310  0.46814994  0.34293670     0.78140
Zn1634     Zn  0.66384938  0.30792533  0.49357954     1.49720
Zn1635     Zn  0.64156307  0.36594064  0.48261372     1.49360
Zn1636     Zn  0.69912014  0.35410033  0.00397074     1.49110
Zn1637     Zn  0.68190369  0.34458643  0.41523094     1.49480
O1638       O  0.67090081  0.34289075  0.47287949    -1.83130
O1639       O  0.62754157  0.30549801  0.01272432    -0.73760
O1640       O  0.64995262  0.39518466  0.02319356    -0.73580
O1641       O  0.71158679  0.32974493  0.04314053    -0.73100
O1642       O  0.61266413  0.34546865  0.00674089    -0.73780
O1643       O  0.68655829  0.29565725  0.04213728    -0.73380
O1644       O  0.68984004  0.38302779  0.03713372    -0.73960
O1645       O  0.71749045  0.36364737  0.40690677    -0.73350
O1646       O  0.62725040  0.37860098  0.42921379    -0.74110
O1647       O  0.72896244  0.36337825  0.47202899    -0.73500
O1648       O  0.65163632  0.35994410  0.38153678    -0.73970
O1649       O  0.68782569  0.30784942  0.39815334    -0.73870
O1650       O  0.67031796  0.28371578  0.44751638    -0.73660
C1651       C  0.60981935  0.32207613  0.01689868     0.78130
C1652       C  0.67084550  0.39752617  0.04317926     0.78620
C1653       C  0.70555157  0.30798390  0.05667693     0.77580
C1654       C  0.73414180  0.36764536  0.43501853     0.77950
C1655       C  0.63187067  0.37307374  0.39203496     0.79090
C1656       C  0.68165221  0.28613698  0.41326841     0.78140
Zn1657     Zn  0.53817584  0.17757285  0.21716222     1.49720
Zn1658     Zn  0.57989281  0.16242611  0.28135985     1.49360
Zn1659     Zn  0.56779714  0.12455802  0.20530823     1.49110
Zn1660     Zn  0.59708335  0.17981911  0.19307775     1.49480
O1661       O  0.57088744  0.16051520  0.22371635    -1.83130
O1662       O  0.52563663  0.19171209  0.27001361    -0.73760
O1663       O  0.57950714  0.12763934  0.30527054    -0.73580
O1664       O  0.52965180  0.11745007  0.18696921    -0.73100
O1665       O  0.55512132  0.18254283  0.31650362    -0.73780
O1666       O  0.51005217  0.15467747  0.19829186    -0.73380
O1667       O  0.57231010  0.10004939  0.25457825    -0.73960
O1668       O  0.61236703  0.15749980  0.15042424    -0.73350
O1669       O  0.61412152  0.17694758  0.28916589    -0.74110
O1670       O  0.59613184  0.11833473  0.16130043    -0.73500
O1671       O  0.62768050  0.18944045  0.22800854    -0.73970
O1672       O  0.58212012  0.21181057  0.16674797    -0.73870
O1673       O  0.54052060  0.20631690  0.17921334    -0.73660
C1674       C  0.53354932  0.19205128  0.30672491     0.78130
C1675       C  0.57524188  0.10505051  0.29251772     0.78620
C1676       C  0.50913280  0.13113178  0.18870227     0.77580
C1677       C  0.61169932  0.13359964  0.14294456     0.77950
C1678       C  0.63112491  0.18659849  0.26617163     0.79090
C1679       C  0.55878065  0.21880056  0.16320668     0.78140
Zn1680     Zn  0.64056265  0.11730899  0.02130696     1.49720
Zn1681     Zn  0.69748838  0.10548796  0.00489708     1.49360
Zn1682     Zn  0.68090206  0.09613550  0.09319068     1.49110
Zn1683     Zn  0.66471608  0.05932947  0.01108886     1.49480
O1684       O  0.66982436  0.09421250  0.03422709    -1.83130
O1685       O  0.64869669  0.14719204  0.47937645    -0.73760
O1686       O  0.72456139  0.11713608  0.03876761    -0.73580
O1687       O  0.65001583  0.11200749  0.12351626    -0.73100
O1688       O  0.68822933  0.13335101  0.47067411    -0.73780
O1689       O  0.62506418  0.12901434  0.07464542    -0.73380
O1690       O  0.71774983  0.11531732  0.10470118    -0.73960
O1691       O  0.67210817  0.03598080  0.05713269    -0.73350
O1692       O  0.71206679  0.08138275  0.46717397    -0.74110
O1693       O  0.68357742  0.05892140  0.11224348    -0.73500
O1694       O  0.68766020  0.04729399  0.46197113    -0.73970
O1695       O  0.62838644  0.05577841  0.49206086    -0.73870
O1696       O  0.61288379  0.09565101  0.99654084    -0.73660
C1697       C  0.67035505  0.14850608  0.46124924     0.78130
C1698       C  0.73238075  0.12120734  0.07462067     0.78620
C1699       C  0.62974148  0.12398946  0.11208353     0.77580
C1700       C  0.67958561  0.03754850  0.09410844     0.77950
C1701       C  0.70696190  0.06023640  0.45029211     0.79090
C1702       C  0.61047254  0.07208707  0.48706999     0.78140
Zn1703     Zn  0.78042699  0.29293659  0.09806458     1.49720
Zn1704     Zn  0.79610288  0.33492861  0.16141918     1.49360
Zn1705     Zn  0.74298088  0.30566719  0.17428341     1.49110
Zn1706     Zn  0.79781179  0.27604428  0.18672519     1.49480
O1707       O  0.77881047  0.30230784  0.15565551    -1.83130
O1708       O  0.80053923  0.31716079  0.06173752    -0.73760
O1709       O  0.77337074  0.36327118  0.18071962    -0.73580
O1710       O  0.71845532  0.30136942  0.12532936    -0.73100
O1711       O  0.80924598  0.34717049  0.10756127    -0.73780
O1712       O  0.74565372  0.29348416  0.07439481    -0.73380
O1713       O  0.73608306  0.34383001  0.19226785    -0.73960
O1714       O  0.77554214  0.26132428  0.22994966    -0.73350
O1715       O  0.82553477  0.33227618  0.19855527    -0.74110
O1716       O  0.73642442  0.27741154  0.21820230    -0.73500
O1717       O  0.83019823  0.29068759  0.21222128    -0.73970
O1718       O  0.80664477  0.24497037  0.15242890    -0.73870
O1719       O  0.79422003  0.25844464  0.09115767    -0.73660
C1720       C  0.80959095  0.33901554  0.07095256     0.78130
C1721       C  0.74980734  0.36429898  0.19028792     0.78620
C1722       C  0.72322769  0.29814758  0.08741279     0.77580
C1723       C  0.75159331  0.26195990  0.23699892     0.77950
C1724       C  0.83773238  0.31389864  0.21495730     0.79090
C1725       C  0.80355551  0.24136897  0.11436534     0.78140
Zn1726     Zn  0.71378607  0.19281407  0.28613787     1.49720
Zn1727     Zn  0.72316923  0.17589320  0.37426572     1.49360
Zn1728     Zn  0.73501185  0.23284845  0.35840654     1.49110
Zn1729     Zn  0.67696190  0.20882694  0.36805691     1.49480
O1730       O  0.71192442  0.20367000  0.34513444    -1.83130
O1731       O  0.73312444  0.15614289  0.27416010    -0.73760
O1732       O  0.75098917  0.18505154  0.40896886    -0.73580
O1733       O  0.74690771  0.24839555  0.30519426    -0.73100
O1734       O  0.73497188  0.14897712  0.34001669    -0.73780
O1735       O  0.72958346  0.22383845  0.25610081    -0.73380
O1736       O  0.76485598  0.22459933  0.40048648    -0.73960
O1737       O  0.67331589  0.24497873  0.38739335    -0.73350
O1738       O  0.69865366  0.16118652  0.41131848    -0.74110
O1739       O  0.71320456  0.26045461  0.38319899    -0.73500
O1740       O  0.66460329  0.18568648  0.41647766    -0.73970
O1741       O  0.65353982  0.20150190  0.32237328    -0.73870
O1742       O  0.67652463  0.18979208  0.26748057    -0.73660
C1743       C  0.73907733  0.14137026  0.30404238     0.78130
C1744       C  0.76614845  0.20290851  0.41855649     0.78620
C1745       C  0.74179145  0.24393075  0.26772013     0.77580
C1746       C  0.68962127  0.26284553  0.39259937     0.77950
C1747       C  0.67738388  0.16622807  0.42790199     0.79090
C1748       C  0.65514041  0.19369818  0.28562796     0.78140
Zn1749     Zn  0.89382859  0.07350583  0.18911609     1.49720
Zn1750     Zn  0.91279806  0.08664555  0.27825292     1.49360
Zn1751     Zn  0.95336444  0.07296463  0.21385419     1.49110
Zn1752     Zn  0.92491558  0.12678803  0.20536417     1.49480
O1753       O  0.92108318  0.09053285  0.22065951    -1.83130
O1754       O  0.86297805  0.06439741  0.22447053    -0.73760
O1755       O  0.93397564  0.06128693  0.31051775    -0.73580
O1756       O  0.94868809  0.04330784  0.17824818    -0.73100
O1757       O  0.87691618  0.07724460  0.28530046    -0.73780
O1758       O  0.90766213  0.04256558  0.15870281    -0.73380
O1759       O  0.96667543  0.06081856  0.26750491    -0.73960
O1760       O  0.96305429  0.13311470  0.18786714    -0.73350
O1761       O  0.91895881  0.11973871  0.30630518    -0.74110
O1762       O  0.98202091  0.09499861  0.19336248    -0.73500
O1763       O  0.92281821  0.14917313  0.25736942    -0.73970
O1764       O  0.89613342  0.13578205  0.16201627    -0.73870
O1765       O  0.87893051  0.09738604  0.14882402    -0.73660
C1766       C  0.85943911  0.06834605  0.26242771     0.78130
C1767       C  0.95731560  0.05667505  0.30267033     0.78620
C1768       C  0.93028584  0.03328174  0.15853319     0.77580
C1769       C  0.98331110  0.11902577  0.18748518     0.77950
C1770       C  0.92274286  0.14275819  0.29511316     0.79090
C1771       C  0.88005907  0.12138603  0.14280045     0.78140
Zn1772     Zn  0.82623582  0.19608906  0.01271637     1.49720
Zn1773     Zn  0.80998119  0.15866932  0.09413398     1.49360
Zn1774     Zn  0.79323503  0.14978261  0.00513151     1.49110
Zn1775     Zn  0.84945921  0.13780878  0.02147982     1.49480
O1776       O  0.82069494  0.16091247  0.03506382    -1.83130
O1777       O  0.81804838  0.21891513  0.05827449    -0.73760
O1778       O  0.77322266  0.13906782  0.10498791    -0.73580
O1779       O  0.77855231  0.17461322  0.46865741    -0.73100
O1780       O  0.80667024  0.19587718  0.11326656    -0.73780
O1781       O  0.80346015  0.20838758  0.46344071    -0.73380
O1782       O  0.76635134  0.13772758  0.03896197    -0.73960
O1783       O  0.84152803  0.10759038  0.47981130    -0.73350
O1784       O  0.84140487  0.14314933  0.12438072    -0.74110
O1785       O  0.80244759  0.12221216  0.46968911    -0.73500
O1786       O  0.86626451  0.12702082  0.07472080    -0.73970
O1787       O  0.87552256  0.15991103  0.99477514    -0.73870
O1788       O  0.86299494  0.20085229  0.49620501    -0.73660
C1789       C  0.81038733  0.21727893  0.09503723     0.78130
C1790       C  0.75859370  0.13335258  0.07475547     0.78620
C1791       C  0.78382580  0.19581540  0.45203430     0.77580
C1792       C  0.82019279  0.10677616  0.46064822     0.77950
C1793       C  0.86190769  0.13173850  0.11240220     0.79090
C1794       C  0.87949734  0.18364234  0.48794257     0.78140
Zn1795     Zn  0.51824143  0.33042680  0.12710179     1.49720
Zn1796     Zn  0.50676274  0.27299102  0.10823120     1.49360
Zn1797     Zn  0.52769701  0.31340524  0.03928118     1.49110
Zn1798     Zn  0.56485227  0.29581158  0.11791057     1.49480
O1799       O  0.52972109  0.30238478  0.09692344    -1.83130
O1800       O  0.98868480  0.32002006  0.15685261    -0.73760
O1801       O  0.99572124  0.25725692  0.05481058    -0.73580
O1802       O  0.50762422  0.34881979  0.03125742    -0.73100
O1803       O  0.97604717  0.28005853  0.14769853    -0.73780
O1804       O  0.50951376  0.36090530  0.09596529    -0.73380
O1805       O  0.51257940  0.28253748  0.00647439    -0.73960
O1806       O  0.58878684  0.30411425  0.07257794    -0.73350
O1807       O  0.52823657  0.24638601  0.13516097    -0.74110
O1808       O  0.56458519  0.31978592  0.02169525    -0.73500
O1809       O  0.56912905  0.25897964  0.13408410    -0.73970
O1810       O  0.57583675  0.31767392  0.16847584    -0.73870
O1811       O  0.54135037  0.34217028  0.16898880    -0.73660
C1812       C  0.97368050  0.30173211  0.16522004     0.78130
C1813       C  0.00052811  0.26215970  0.01742632     0.78620
C1814       C  0.50427642  0.36578942  0.05917074     0.77580
C1815       C  0.58636394  0.31456879  0.03764118     0.77950
C1816       C  0.55193674  0.24246894  0.14230361     0.79090
C1817       C  0.56291433  0.33616033  0.18344574     0.78140
Zn1818     Zn  0.99787732  0.19849877  0.42709813     1.49720
Zn1819     Zn  0.94538388  0.16821060  0.41648774     1.49360
Zn1820     Zn  0.94327829  0.22818659  0.43861107     1.49110
Zn1821     Zn  0.95857882  0.20834581  0.35088641     1.49480
O1822       O  0.96174939  0.20102884  0.40898907    -1.83130
O1823       O  0.50567503  0.16189829  0.45042946    -0.73760
O1824       O  0.91577963  0.17187971  0.45204260    -0.73580
O1825       O  0.96632436  0.24406115  0.48072829    -0.73100
O1826       O  0.96871041  0.14172097  0.43944409    -0.73780
O1827       O  0.50551945  0.22867642  0.46750259    -0.73380
O1828       O  0.91087860  0.21362150  0.46480050    -0.73960
O1829       O  0.94584170  0.24324222  0.34110003    -0.73350
O1830       O  0.93279163  0.15304044  0.36346406    -0.74110
O1831       O  0.93419289  0.25829099  0.40181882    -0.73500
O1832       O  0.93718621  0.18375993  0.31741909    -0.73970
O1833       O  0.99263745  0.20480325  0.32607671    -0.73870
O1834       O  0.52101565  0.19901485  0.37618106    -0.73660
C1835       C  0.99223021  0.14130539  0.44937401     0.78130
C1836       C  0.90341480  0.19035478  0.46772552     0.78620
C1837       C  0.99048116  0.24412586  0.48655395     0.77580
C1838       C  0.93691617  0.26100026  0.36344275     0.77950
C1839       C  0.93041312  0.16117098  0.32700790     0.79090
C1840       C  0.51527223  0.20012691  0.33825319     0.78140
Zn1841     Zn  0.81372830  0.04717271  0.86507720     1.49720
Zn1842     Zn  0.77653023  0.06377946  0.78346319     1.49360
Zn1843     Zn  0.75529746  0.02429596  0.85570225     1.49110
Zn1844     Zn  0.76774367  0.08031151  0.87272561     1.49480
O1845       O  0.77870664  0.05292163  0.84251142    -1.83130
O1846       O  0.83668783  0.05512274  0.81919291    -0.73760
O1847       O  0.76082269  0.03248319  0.75304267    -0.73580
O1848       O  0.77679021  0.49792025  0.88255421    -0.73100
O1849       O  0.81379106  0.06658646  0.76404628    -0.73780
O1850       O  0.81780660  0.01021287  0.88132519    -0.73380
O1851       O  0.74459864  0.00756917  0.80252891    -0.73960
O1852       O  0.74014146  0.07113038  0.90792933    -0.73350
O1853       O  0.75701960  0.10071097  0.77307796    -0.74110
O1854       O  0.72510467  0.03230441  0.89697654    -0.73500
O1855       O  0.75572171  0.10726668  0.83918127    -0.73970
O1856       O  0.79235425  0.09485996  0.90960760    -0.73870
O1857       O  0.82589541  0.06967163  0.91510979    -0.73660
C1858       C  0.83516206  0.06255642  0.78223555     0.78130
C1859       C  0.74938813  0.01196686  0.76490698     0.78620
C1860       C  0.80046874  0.49378418  0.88939910     0.77580
C1861       C  0.72450870  0.05349137  0.91650864     0.77950
C1862       C  0.75130917  0.11519113  0.80350095     0.79090
C1863       C  0.81335460  0.08932498  0.92664097     0.78140
Zn1864     Zn  0.70520783  0.46040059  0.59948229     1.49720
Zn1865     Zn  0.74517497  0.44851529  0.67270079     1.49360
Zn1866     Zn  0.69138900  0.47953384  0.68805386     1.49110
Zn1867     Zn  0.69142537  0.41993739  0.66431277     1.49480
O1868       O  0.70887263  0.45225555  0.65711075    -1.83130
O1869       O  0.73847303  0.45443351  0.57189577    -0.73760
O1870       O  0.75372180  0.47752529  0.71583086    -0.73580
O1871       O  0.68184592  0.00996933  0.65209138    -0.73100
O1872       O  0.76787837  0.45051419  0.62086467    -0.73780
O1873       O  0.69513348  0.49605163  0.59153109    -0.73380
O1874       O  0.71522680  0.49486385  0.72809285    -0.73960
O1875       O  0.66181349  0.42459504  0.69964881    -0.73350
O1876       O  0.75166065  0.41043490  0.69075658    -0.74110
O1877       O  0.66026337  0.46573459  0.71829369    -0.73500
O1878       O  0.71364634  0.39134526  0.68480039    -0.73970
O1879       O  0.67858895  0.40659442  0.61124514    -0.73870
O1880       O  0.68015886  0.43891341  0.56751069    -0.73660
C1881       C  0.76149584  0.45062897  0.58310152     0.78130
C1882       C  0.73920262  0.49374970  0.73449634     0.78620
C1883       C  0.68573627  0.01340651  0.61409822     0.77580
C1884       C  0.65129737  0.44298518  0.71864395     0.77950
C1885       C  0.73764786  0.39013049  0.69107757     0.79090
C1886       C  0.67467695  0.41585273  0.57595435     0.78140
Zn1887     Zn  0.82596713  0.41375660  0.52616717     1.49720
Zn1888     Zn  0.78569905  0.42764969  0.96137426     1.49360
Zn1889     Zn  0.84516948  0.43061445  0.93897161     1.49110
Zn1890     Zn  0.81643072  0.37505988  0.95029320     1.49480
O1891       O  0.81846131  0.41128160  0.96823614    -1.83130
O1892       O  0.80262540  0.43647548  0.56015259    -0.73760
O1893       O  0.78869966  0.45748550  0.92564877    -0.73580
O1894       O  0.87381170  0.44185966  0.97673958    -0.73100
O1895       O  0.77128581  0.44006095  0.51490883    -0.73780
O1896       O  0.86180159  0.42331025  0.53487772    -0.73380
O1897       O  0.83028335  0.46227912  0.91192105    -0.73960
O1898       O  0.84671066  0.36831555  0.90932813    -0.73350
O1899       O  0.75930985  0.40394640  0.93935923    -0.74110
O1900       O  0.86254426  0.40756652  0.89765396    -0.73500
O1901       O  0.77973232  0.36715483  0.92755411    -0.73970
O1902       O  0.81726840  0.35132010  0.00115033    -0.73870
O1903       O  0.82098463  0.38011049  0.55093064    -0.73660
C1904       C  0.77981253  0.44289194  0.55106146     0.78130
C1905       C  0.80705941  0.46979895  0.90948743     0.78620
C1906       C  0.87814916  0.43526917  0.51349948     0.77580
C1907       C  0.86250056  0.38344830  0.89107685     0.77950
C1908       C  0.75903842  0.38043507  0.92934127     0.79090
C1909       C  0.81730766  0.35728306  0.53905855     0.78140
Zn1910     Zn  0.94917836  0.35365683  0.75258021     1.49720
Zn1911     Zn  0.93122261  0.34357756  0.84097086     1.49360
Zn1912     Zn  0.89268010  0.36529507  0.76994760     1.49110
Zn1913     Zn  0.91485692  0.30661007  0.76055376     1.49480
O1914       O  0.92112682  0.34194111  0.78247867    -1.83130
O1915       O  0.97923182  0.36171997  0.78381503    -0.73760
O1916       O  0.90090439  0.36090624  0.87224210    -0.73580
O1917       O  0.90156450  0.39424445  0.72820302    -0.73100
O1918       O  0.96824399  0.36126387  0.84912674    -0.73780
O1919       O  0.94158948  0.38204761  0.71687754    -0.73380
O1920       O  0.87647613  0.37782736  0.82285322    -0.73960
O1921       O  0.87793837  0.30292467  0.74375326    -0.73350
O1922       O  0.93378842  0.30648175  0.86089702    -0.74110
O1923       O  0.86578453  0.34399659  0.74315881    -0.73500
O1924       O  0.92289073  0.28313215  0.80609593    -0.73970
O1925       O  0.93712637  0.29423085  0.71083933    -0.73870
O1926       O  0.96016586  0.32925130  0.71456996    -0.73660
C1927       C  0.98482601  0.36533895  0.82076486     0.78130
C1928       C  0.88091167  0.37333125  0.86056373     0.78620
C1929       C  0.92268584  0.39620106  0.70869222     0.77580
C1930       C  0.86160103  0.32037414  0.73572112     0.77950
C1931       C  0.93029163  0.28493904  0.84303531     0.79090
C1932       C  0.95565245  0.30793384  0.69824718     0.78140
Zn1933     Zn  0.50659618  0.02461148  0.89748257     1.49720
Zn1934     Zn  0.52854322  0.06420431  0.96520434     1.49360
Zn1935     Zn  0.56508067  0.04553075  0.88666027     1.49110
Zn1936     Zn  0.51911672  0.08116500  0.87548737     1.49480
O1937       O  0.53014116  0.05326478  0.90738069    -1.83130
O1938       O  0.99546998  0.00903887  0.95124196    -0.73760
O1939       O  0.56540908  0.07004790  0.98210686    -0.73580
O1940       O  0.56782375  0.00845687  0.87061081    -0.73100
O1941       O  0.51325819  0.03372393  0.49934855    -0.73780
O1942       O  0.52661717  0.49692754  0.87017514    -0.73380
O1943       O  0.58939478  0.05306170  0.93211540    -0.73960
O1944       O  0.54422154  0.09427002  0.83826877    -0.73350
O1945       O  0.50962332  0.10011014  0.97284370    -0.74110
O1946       O  0.57696658  0.06747659  0.83647962    -0.73500
O1947       O  0.50857567  0.11055497  0.90725020    -0.73970
O1948       O  0.99112400  0.07152970  0.84011771    -0.73870
O1949       O  0.97653236  0.03326227  0.85843838    -0.73660
C1950       C  0.00072487  0.01359251  0.98860736     0.78130
C1951       C  0.58709063  0.06415061  0.96657752     0.78620
C1952       C  0.55016522  0.49229738  0.86295046     0.77580
C1953       C  0.56542105  0.08743856  0.82349593     0.77950
C1954       C  0.50484507  0.11624266  0.94421614     0.79090
C1955       C  0.97557210  0.05317834  0.83583087     0.78140
Zn1956     Zn  0.94208691  0.47741701  0.56320464     1.49720
Zn1957     Zn  0.94398153  0.41762681  0.58555990     1.49360
Zn1958     Zn  0.99703285  0.44821362  0.57747075     1.49110
Zn1959     Zn  0.95638063  0.45743559  0.64984013     1.49480
O1960       O  0.96049432  0.45023689  0.59231494    -1.83130
O1961       O  0.91239803  0.46279854  0.53121098    -0.73760
O1962       O  0.96747872  0.39104595  0.56125094    -0.73580
O1963       O  0.50521998  0.47892727  0.53724731    -0.73100
O1964       O  0.91279703  0.42208633  0.55244237    -0.73780
O1965       O  0.96641647  0.99584313  0.52563836    -0.73380
O1966       O  0.50486628  0.41146703  0.55480644    -0.73960
O1967       O  0.98852353  0.44926767  0.67857326    -0.73350
O1968       O  0.93324616  0.40344582  0.64031644    -0.74110
O1969       O  0.51885631  0.44821034  0.63074877    -0.73980
O1970       O  0.92907866  0.43743851  0.68012069    -0.73970
O1971       O  0.94941449  0.49351321  0.65833113    -0.73870
O1972       O  0.92827615  0.00469076  0.60207239    -0.73660
C1973       C  0.90266807  0.44040613  0.53255250     0.78130
C1974       C  0.99142952  0.39082711  0.55371934     0.78620
C1975       C  0.99054102  0.49540302  0.51944547     0.77580
C1976       C  0.51177909  0.44641636  0.66813594     0.77950
C1977       C  0.92679168  0.41353395  0.67420842     0.79090
C1978       C  0.93588017  0.00926044  0.63830365     0.78140
Zn1979     Zn  0.53591547  0.42524628  0.79130871     1.49720
Zn1980     Zn  0.56770281  0.37285517  0.80278119     1.49360
Zn1981     Zn  0.57701535  0.41098284  0.72646082     1.49110
Zn1982     Zn  0.59530105  0.42952870  0.81325999     1.49480
O1983       O  0.56905646  0.40916101  0.78435584    -1.83130
O1984       O  0.51014174  0.40152947  0.81586924    -0.73760
O1985       O  0.57074280  0.34834972  0.75279705    -0.73580
O1986       O  0.55244669  0.43159711  0.69163816    -0.73100
O1987       O  0.53072632  0.36455731  0.82544990    -0.73780
O1988       O  0.52125149  0.43646090  0.73689540    -0.73380
O1989       O  0.57545523  0.37660884  0.70242744    -0.73960
O1990       O  0.62311109  0.44291322  0.77549378    -0.73350
O1991       O  0.59774181  0.36722697  0.84389918    -0.74110
O1992       O  0.61149724  0.42392612  0.71760936    -0.73500
O1993       O  0.61367374  0.40667680  0.85358437    -0.73970
O1994       O  0.57965842  0.46038116  0.84131715    -0.73870
O1995       O  0.53828414  0.45600994  0.82598874    -0.73660
C1996       C  0.51001036  0.37793250  0.82557295     0.78130
C1997       C  0.57223457  0.35381630  0.71479317     0.78620
C1998       C  0.52975935  0.43845611  0.70053262     0.77580
C1999       C  0.62725655  0.43695621  0.73844258     0.77950
C2000       C  0.61368728  0.38265614  0.86102233     0.79090
C2001       C  0.55650295  0.46815055  0.84293629     0.78140
Zn2002     Zn  0.66384974  0.30792564  0.99357922     1.49720
Zn2003     Zn  0.64156325  0.36594090  0.98261344     1.49360
Zn2004     Zn  0.69911991  0.35410001  0.50397093     1.49110
Zn2005     Zn  0.68190405  0.34458698  0.91523058     1.49480
O2006       O  0.67090108  0.34289110  0.97287913    -1.83130
O2007       O  0.62754121  0.30549785  0.51272458    -0.73760
O2008       O  0.64995246  0.39518438  0.52319382    -0.73580
O2009       O  0.71158651  0.32974460  0.54314076    -0.73100
O2010       O  0.61266382  0.34546851  0.50674108    -0.73780
O2011       O  0.68655788  0.29565700  0.54213762    -0.73380
O2012       O  0.68983988  0.38302752  0.53713400    -0.73960
O2013       O  0.71749099  0.36364794  0.90690686    -0.73350
O2014       O  0.62725040  0.37860120  0.92921355    -0.74110
O2015       O  0.72896275  0.36337870  0.97202917    -0.73500
O2016       O  0.65163657  0.35994479  0.88153641    -0.73970
O2017       O  0.68782601  0.30784988  0.89815289    -0.73870
O2018       O  0.67031835  0.28371620  0.94751597    -0.73660
C2019       C  0.60981901  0.32207600  0.51689889     0.78130
C2020       C  0.67084533  0.39752589  0.54317955     0.78620
C2021       C  0.70555120  0.30798360  0.55667723     0.77580
C2022       C  0.73414226  0.36764589  0.93501881     0.77950
C2023       C  0.63187076  0.37307419  0.89203466     0.79090
C2024       C  0.68165256  0.28613742  0.91326797     0.78140
Zn2025     Zn  0.53817592  0.17757281  0.71716209     1.49720
Zn2026     Zn  0.57989304  0.16242674  0.78135966     1.49360
Zn2027     Zn  0.56779736  0.12455824  0.70530833     1.49110
Zn2028     Zn  0.59708358  0.17981928  0.69307773     1.49480
O2029       O  0.57088764  0.16051544  0.72371629    -1.83130
O2030       O  0.52563657  0.19171214  0.77001333    -0.73760
O2031       O  0.57950806  0.12764004  0.80527024    -0.73580
O2032       O  0.52965199  0.11744993  0.68696978    -0.73100
O2033       O  0.55512130  0.18254313  0.81650340    -0.73780
O2034       O  0.51005227  0.15467735  0.69829169    -0.73380
O2035       O  0.57231112  0.10004981  0.75457828    -0.73960
O2036       O  0.61236696  0.15750007  0.65042387    -0.73350
O2037       O  0.61412153  0.17694852  0.78916590    -0.74110
O2038       O  0.59613165  0.11833505  0.66130015    -0.73500
O2039       O  0.62768091  0.18944049  0.72800835    -0.73970
O2040       O  0.58212030  0.21181074  0.66674834    -0.73870
O2041       O  0.54052074  0.20631675  0.67921324    -0.73660
C2042       C  0.53354926  0.19205146  0.80672462     0.78130
C2043       C  0.57524308  0.10505112  0.79251764     0.78620
C2044       C  0.50913295  0.13113160  0.68870247     0.77580
C2045       C  0.61169906  0.13359992  0.64294411     0.77950
C2046       C  0.63112511  0.18659899  0.76617157     0.79090
C2047       C  0.55878078  0.21880055  0.66320688     0.78140
Zn2048     Zn  0.64056134  0.11730844  0.52130633     1.49720
Zn2049     Zn  0.69748735  0.10548756  0.50489675     1.49360
Zn2050     Zn  0.68090124  0.09613530  0.59318998     1.49110
Zn2051     Zn  0.66471475  0.05932903  0.51108852     1.49480
O2052       O  0.66982321  0.09421211  0.53422656    -1.83130
O2053       O  0.64869796  0.14719286  0.97937768    -0.73760
O2054       O  0.72456071  0.11713570  0.53876692    -0.73580
O2055       O  0.65001526  0.11200752  0.62351553    -0.73100
O2056       O  0.68823036  0.13335142  0.97067436    -0.73780
O2057       O  0.62506347  0.12901438  0.57464484    -0.73380
O2058       O  0.71774907  0.11531705  0.60470044    -0.73960
O2059       O  0.67210743  0.03598054  0.55713240    -0.73350
O2060       O  0.71206807  0.08138320  0.96717435    -0.74110
O2061       O  0.68357664  0.05892129  0.61224306    -0.73500
O2062       O  0.68766165  0.04729430  0.96197197    -0.73970
O2063       O  0.62838814  0.05577909  0.99206001    -0.73870
O2064       O  0.61288199  0.09565030  0.49654149    -0.73660
C2065       C  0.67035614  0.14850667  0.96124991     0.78130
C2066       C  0.73238006  0.12120698  0.57462000     0.78620
C2067       C  0.62974097  0.12398962  0.61208292     0.77580
C2068       C  0.67958496  0.03754835  0.59410811     0.77950
C2069       C  0.70696323  0.06023676  0.95029270     0.79090
C2070       C  0.61047442  0.07208787  0.98706882     0.78140
Zn2071     Zn  0.78042650  0.29293600  0.59806452     1.49720
Zn2072     Zn  0.79610268  0.33492834  0.66141871     1.49360
Zn2073     Zn  0.74298073  0.30566720  0.67428351     1.49110
Zn2074     Zn  0.79781163  0.27604407  0.68672499     1.49480
O2075       O  0.77881023  0.30230761  0.65565535    -1.83130
O2076       O  0.80053853  0.31716006  0.56173690    -0.73760
O2077       O  0.77337065  0.36327111  0.68071914    -0.73580
O2078       O  0.71845508  0.30136951  0.62532963    -0.73100
O2079       O  0.80924540  0.34716989  0.60756041    -0.73780
O2080       O  0.74565317  0.29348338  0.57439500    -0.73380
O2081       O  0.73608302  0.34383004  0.69226801    -0.73960
O2082       O  0.77554208  0.26132426  0.72994947    -0.73350
O2083       O  0.82553470  0.33227589  0.69855475    -0.74110
O2084       O  0.73642435  0.27741160  0.71820240    -0.73500
O2085       O  0.83019799  0.29068734  0.71222116    -0.73970
O2086       O  0.80664459  0.24496999  0.65242908    -0.73870
O2087       O  0.79421954  0.25844404  0.59115790    -0.73660
C2088       C  0.80959019  0.33901487  0.57095172     0.78130
C2089       C  0.74980731  0.36429899  0.69028777     0.78620
C2090       C  0.72322727  0.29814724  0.58741310     0.77580
C2091       C  0.75159329  0.26195995  0.73699889     0.77950
C2092       C  0.83773220  0.31389836  0.71495707     0.79090
C2093       C  0.80355515  0.24136846  0.61436559     0.78140
Zn2094     Zn  0.71378627  0.19281418  0.78613778     1.49720
Zn2095     Zn  0.72316974  0.17589336  0.87426534     1.49360
Zn2096     Zn  0.73501214  0.23284867  0.85840647     1.49110
Zn2097     Zn  0.67696232  0.20882723  0.86805693     1.49480
O2098       O  0.71192477  0.20367019  0.84513434    -1.83130
O2099       O  0.73312456  0.15614295  0.77415972    -0.73760
O2100       O  0.75098976  0.18505168  0.90896830    -0.73580
O2101       O  0.74690790  0.24839566  0.80519419    -0.73100
O2102       O  0.73497219  0.14897717  0.84001628    -0.73780
O2103       O  0.72958357  0.22383852  0.75610082    -0.73380
O2104       O  0.76485628  0.22459961  0.90048643    -0.73960
O2105       O  0.67331627  0.24497912  0.88739304    -0.73350
O2106       O  0.69865439  0.16118689  0.91131855    -0.74110
O2107       O  0.71320493  0.26045497  0.88319874    -0.73500
O2108       O  0.66460409  0.18568693  0.91647814    -0.73970
O2109       O  0.65354013  0.20150213  0.82237337    -0.73870
O2110       O  0.67652484  0.18979239  0.76748051    -0.73660
C2111       C  0.73907751  0.14137028  0.80404194     0.78130
C2112       C  0.76614889  0.20290871  0.91855618     0.78620
C2113       C  0.74179153  0.24393083  0.76772011     0.77580
C2114       C  0.68962164  0.26284594  0.89259899     0.77950
C2115       C  0.67738476  0.16622856  0.92790243     0.79090
C2116       C  0.65514065  0.19369852  0.78562796     0.78140
Zn2117     Zn  0.89382883  0.07350573  0.68911648     1.49720
Zn2118     Zn  0.91279857  0.08664535  0.77825349     1.49360
Zn2119     Zn  0.95336473  0.07296435  0.71385440     1.49110
Zn2120     Zn  0.92491568  0.12678784  0.70536444     1.49480
O2121       O  0.92108349  0.09053266  0.72065991    -1.83130
O2122       O  0.86297836  0.06439757  0.72447093    -0.73760
O2123       O  0.93397666  0.06128722  0.81051861    -0.73580
O2124       O  0.94868808  0.04330707  0.67824906    -0.73100
O2125       O  0.87691677  0.07724410  0.78530107    -0.73780
O2126       O  0.90766212  0.04256529  0.65870355    -0.73380
O2127       O  0.96667620  0.06081907  0.76750532    -0.73960
O2128       O  0.96305444  0.13311447  0.68786764    -0.73350
O2129       O  0.91895894  0.11973867  0.80630554    -0.74110
O2130       O  0.98202108  0.09499831  0.69336197    -0.73500
O2131       O  0.92281822  0.14917301  0.75736965    -0.73970
O2132       O  0.89613343  0.13578182  0.66201639    -0.73870
O2133       O  0.87893064  0.09738578  0.64882418    -0.73660
C2134       C  0.85943956  0.06834592  0.76242820     0.78130
C2135       C  0.95731667  0.05667573  0.80267099     0.78620
C2136       C  0.93028569  0.03328112  0.65853412     0.77580
C2137       C  0.98331126  0.11902554  0.68748525     0.77950
C2138       C  0.92274288  0.14275814  0.79511343     0.79090
C2139       C  0.88005909  0.12138576  0.64280058     0.78140
Zn2140     Zn  0.82623547  0.19608879  0.51271655     1.49720
Zn2141     Zn  0.80998080  0.15866875  0.59413404     1.49360
Zn2142     Zn  0.79323472  0.14978228  0.50513153     1.49110
Zn2143     Zn  0.84945907  0.13780862  0.52147984     1.49480
O2144       O  0.82069464  0.16091213  0.53506394    -1.83130
O2145       O  0.81804807  0.21891467  0.55827482    -0.73760
O2146       O  0.77322207  0.13906726  0.60498745    -0.73580
O2147       O  0.77855246  0.17461358  0.96865752    -0.73100
O2148       O  0.80666983  0.19587664  0.61326678    -0.73780
O2149       O  0.80346062  0.20838770  0.96344032    -0.73380
O2150       O  0.76635075  0.13772726  0.53896151    -0.73960
O2151       O  0.84152819  0.10759059  0.97981129    -0.73350
O2152       O  0.84140460  0.14314871  0.62438083    -0.74110
O2153       O  0.80244783  0.12221251  0.96968883    -0.73500
O2154       O  0.86626454  0.12702075  0.57472085    -0.73970
O2155       O  0.87552226  0.15991105  0.49477498    -0.73870
O2156       O  0.86299532  0.20085231  0.99620499    -0.73660
C2157       C  0.81038699  0.21727842  0.59503753     0.78130
C2158       C  0.75859307  0.13335217  0.57475495     0.78620
C2159       C  0.78382615  0.19581564  0.95203414     0.77580
C2160       C  0.82019302  0.10677648  0.96064801     0.77950
C2161       C  0.86190760  0.13173819  0.61240231     0.79090
C2162       C  0.87949770  0.18364231  0.98794272     0.78140
Zn2163     Zn  0.51824124  0.33042631  0.62710240     1.49720
Zn2164     Zn  0.50676257  0.27299061  0.60823164     1.49360
Zn2165     Zn  0.52769670  0.31340467  0.53928163     1.49110
Zn2166     Zn  0.56485213  0.29581151  0.61791094     1.49480
O2167       O  0.52972089  0.30238438  0.59692390    -1.83130
O2168       O  0.98868490  0.32001937  0.65685357    -0.73760
O2169       O  0.99572114  0.25725629  0.55481109    -0.73580
O2170       O  0.50762333  0.34881883  0.53125791    -0.73100
O2171       O  0.97604697  0.28005800  0.64769909    -0.73780
O2172       O  0.50951277  0.36090443  0.59596576    -0.73380
O2173       O  0.51257940  0.28253676  0.50647491    -0.73960
O2174       O  0.58878657  0.30411416  0.57257820    -0.73350
O2175       O  0.52823660  0.24638584  0.63516131    -0.74110
O2176       O  0.56458483  0.31978574  0.52169556    -0.73500
O2177       O  0.56912904  0.25897967  0.63408449    -0.73970
O2178       O  0.57583668  0.31767397  0.66847606    -0.73870
O2179       O  0.54135024  0.34217024  0.66898905    -0.73660
C2180       C  0.97368049  0.30173151  0.66522089     0.78130
C2181       C  0.00052811  0.26215899  0.51742683     0.78620
C2182       C  0.50427521  0.36578839  0.55917124     0.77580
C2183       C  0.58636361  0.31456869  0.53764144     0.77950
C2184       C  0.55193680  0.24246890  0.64230393     0.79090
C2185       C  0.56291425  0.33616039  0.68344592     0.78140
Zn2186     Zn  0.99787751  0.19849941  0.92709789     1.49720
Zn2187     Zn  0.94538426  0.16821075  0.91648779     1.49360
Zn2188     Zn  0.94327840  0.22818666  0.93861117     1.49110
Zn2189     Zn  0.95857877  0.20834587  0.85088636     1.49480
O2190       O  0.96174953  0.20102906  0.90898902    -1.83130
O2191       O  0.50567562  0.16189919  0.95042983    -0.73760
O2192       O  0.91578016  0.17187962  0.95204314    -0.73580
O2193       O  0.96632434  0.24406142  0.98072835    -0.73100
O2194       O  0.96871134  0.14172143  0.93944344    -0.73780
O2195       O  0.50551956  0.22867734  0.96750181    -0.73380
O2196       O  0.91087883  0.21362144  0.96480048    -0.73960
O2197       O  0.94584158  0.24324220  0.84110016    -0.73350
O2198       O  0.93279178  0.15304051  0.86346425    -0.74110
O2199       O  0.93419281  0.25829092  0.90181903    -0.73500
O2200       O  0.93718606  0.18375998  0.81741920    -0.73970
O2201       O  0.99263733  0.20480329  0.82607643    -0.73870
O2202       O  0.52101568  0.19901532  0.87618071    -0.73660
C2203       C  0.99223108  0.14130612  0.94937381     0.78130
C2204       C  0.90341519  0.19035470  0.96772579     0.78620
C2205       C  0.99048118  0.24412653  0.98655350     0.77580
C2206       C  0.93691603  0.26100020  0.86344295     0.77950
C2207       C  0.93041310  0.16117101  0.82700810     0.79090
C2208       C  0.51527216  0.20012713  0.83825286     0.78140
Zn2209     Zn  0.81372803  0.54717261  0.36507703     1.49720
Zn2210     Zn  0.77652985  0.56377945  0.28346346     1.49360
Zn2211     Zn  0.75529697  0.52429588  0.35570239     1.49110
Zn2212     Zn  0.76774301  0.58031122  0.37272615     1.49480
O2213       O  0.77870622  0.55292157  0.34251168    -1.83130
O2214       O  0.83668752  0.55512258  0.31919247    -0.73760
O2215       O  0.76082237  0.53248322  0.25304289    -0.73580
O2216       O  0.77678970  0.99792028  0.38255449    -0.73100
O2217       O  0.81379060  0.56658655  0.26404616    -0.73780
O2218       O  0.81780614  0.51021275  0.38132529    -0.73380
O2219       O  0.74459848  0.50756904  0.30252905    -0.73960
O2220       O  0.74014039  0.57113009  0.40792920    -0.73350
O2221       O  0.75701928  0.60071092  0.27307846    -0.74110
O2222       O  0.72510378  0.53230410  0.39697616    -0.73500
O2223       O  0.75572145  0.60726664  0.33918181    -0.73970
O2224       O  0.79235354  0.59485914  0.40960876    -0.73870
O2225       O  0.82589543  0.56967165  0.41510934    -0.73660
C2226       C  0.83516166  0.56255641  0.28223518     0.78130
C2227       C  0.74938796  0.51196680  0.26490716     0.78620
C2228       C  0.80046822  0.99378413  0.38939930     0.77580
C2229       C  0.72450757  0.55349106  0.41650821     0.77950
C2230       C  0.75130896  0.61519112  0.30350147     0.79090
C2231       C  0.81335426  0.58932457  0.42664135     0.78140
Zn2232     Zn  0.70520843  0.96040070  0.09948233     1.49720
Zn2233     Zn  0.74517515  0.94851522  0.17270120     1.49360
Zn2234     Zn  0.69138908  0.97953370  0.18805387     1.49110
Zn2235     Zn  0.69142548  0.91993739  0.16431251     1.49480
O2236       O  0.70887286  0.95225551  0.15711075    -1.83130
O2237       O  0.73847383  0.95443374  0.07189624    -0.73760
O2238       O  0.75372183  0.97752519  0.21583126    -0.73580
O2239       O  0.68184606  0.50996924  0.15209149    -0.73100
O2240       O  0.76787890  0.95051416  0.12086547    -0.73780
O2241       O  0.69513412  0.99605178  0.09153134    -0.73380
O2242       O  0.71522679  0.99486375  0.22809284    -0.73960
O2243       O  0.66181376  0.92459482  0.19964889    -0.73350
O2244       O  0.75166066  0.91043487  0.19075714    -0.74110
O2245       O  0.66026353  0.96573435  0.21829384    -0.73500
O2246       O  0.71364643  0.89134521  0.18479980    -0.73970
O2247       O  0.67858883  0.90659466  0.11124490    -0.73870
O2248       O  0.68015962  0.93891356  0.06751032    -0.73660
C2249       C  0.76149658  0.95062913  0.08310224     0.78130
C2250       C  0.73920258  0.99374962  0.23449652     0.78620
C2251       C  0.68573673  0.51340657  0.11409845     0.77580
C2252       C  0.65129764  0.94298489  0.21864418     0.77950
C2253       C  0.73764788  0.89013045  0.19107761     0.79090
C2254       C  0.67467718  0.91585300  0.07595402     0.78140
Zn2255     Zn  0.82596846  0.91375729  0.02616800     1.49720
Zn2256     Zn  0.78569822  0.92764926  0.46137346     1.49360
Zn2257     Zn  0.84516863  0.93061403  0.43897130     1.49110
Zn2258     Zn  0.81643021  0.87505932  0.45029231     1.49480
O2259       O  0.81846040  0.91128105  0.46823529    -1.83130
O2260       O  0.80262631  0.93647581  0.06015353    -0.73760
O2261       O  0.78869895  0.95748522  0.42564827    -0.73580
O2262       O  0.87381052  0.94185884  0.47673994    -0.73100
O2263       O  0.77128681  0.94006141  0.01490960    -0.73780
O2264       O  0.86180300  0.92331163  0.03487793    -0.73380
O2265       O  0.83028272  0.96227898  0.41192129    -0.73960
O2266       O  0.84671028  0.86831537  0.40932700    -0.73350
O2267       O  0.75930921  0.90394593  0.43935819    -0.74110
O2268       O  0.86254364  0.90756649  0.39765328    -0.73500
O2269       O  0.77973179  0.86715431  0.42755352    -0.73970
O2270       O  0.81726802  0.85131932  0.50114938    -0.73870
O2271       O  0.82098636  0.88011104  0.05093171    -0.73660
C2272       C  0.77981344  0.94289227  0.05106231     0.78130
C2273       C  0.80705880  0.96979880  0.40948744     0.78620
C2274       C  0.87815050  0.93527038  0.01349926     0.77580
C2275       C  0.86250012  0.88344830  0.39107590     0.77950
C2276       C  0.75903787  0.88043454  0.42934058     0.79090
C2277       C  0.81730868  0.85728371  0.03905952     0.78140
Zn2278     Zn  0.94917882  0.85365708  0.25258002     1.49720
Zn2279     Zn  0.93122255  0.84357772  0.34097052     1.49360
Zn2280     Zn  0.89268058  0.86529558  0.26994671     1.49110
Zn2281     Zn  0.91485721  0.80661035  0.26055340     1.49480
O2282       O  0.92112708  0.84194143  0.28247819    -1.83130
O2283       O  0.97923235  0.86171936  0.28381517    -0.73760
O2284       O  0.90090404  0.86090626  0.37224139    -0.73580
O2285       O  0.90156541  0.89424479  0.22820171    -0.73100
O2286       O  0.96824390  0.86126405  0.34912667    -0.73780
O2287       O  0.94159060  0.88204819  0.21687744    -0.73380
O2288       O  0.87647633  0.87782795  0.32285231    -0.73960
O2289       O  0.87793860  0.80292497  0.24375334    -0.73350
O2290       O  0.93378840  0.80648187  0.36089679    -0.74110
O2291       O  0.86578497  0.84399697  0.24315816    -0.73500
O2292       O  0.92289114  0.78313230  0.30609550    -0.73970
O2293       O  0.93712648  0.79423127  0.21083864    -0.73870
O2294       O  0.96016599  0.82925169  0.21456944    -0.73660
C2295       C  0.98482625  0.86533858  0.32076505     0.78130
C2296       C  0.88091148  0.87333148  0.36056286     0.78620
C2297       C  0.92268698  0.89620155  0.20869151     0.77580
C2298       C  0.86160132  0.82037446  0.23572100     0.77950
C2299       C  0.93029183  0.78493915  0.34303500     0.79090
C2300       C  0.95565251  0.80793432  0.19824645     0.78140
Zn2301     Zn  0.50659500  0.52461007  0.39748169     1.49720
Zn2302     Zn  0.52854115  0.56420298  0.46520443     1.49360
Zn2303     Zn  0.56507937  0.54553022  0.38666077     1.49110
Zn2304     Zn  0.51911520  0.58116412  0.37548744     1.49480
O2305       O  0.53013958  0.55326371  0.40738061    -1.83130
O2306       O  0.99546810  0.50903720  0.45124072    -0.73760
O2307       O  0.56540703  0.57004649  0.48210820    -0.73580
O2308       O  0.56782323  0.50845643  0.37061127    -0.73100
O2309       O  0.51326084  0.53372534  0.99934940    -0.73780
O2310       O  0.52661683  0.99692651  0.37017501    -0.73380
O2311       O  0.58939301  0.55306123  0.43211632    -0.73960
O2312       O  0.54421973  0.59426886  0.33826777    -0.73350
O2313       O  0.50962130  0.60010887  0.47284370    -0.74110
O2314       O  0.57696553  0.56747635  0.33648055    -0.73500
O2315       O  0.50857491  0.61055432  0.40725040    -0.73970
O2316       O  0.99112204  0.57152913  0.34011873    -0.73870
O2317       O  0.97653169  0.53326062  0.35843634    -0.73660
C2318       C  0.00072248  0.51359099  0.48860627     0.78130
C2319       C  0.58708871  0.56414965  0.46657878     0.78620
C2320       C  0.55016499  0.99229669  0.36295073     0.77580
C2321       C  0.56541961  0.58743783  0.32349579     0.77950
C2322       C  0.50484387  0.61624176  0.44421631     0.79090
C2323       C  0.97557079  0.55317737  0.33583042     0.78140
Zn2324     Zn  0.94208870  0.97741805  0.06320376     1.49720
Zn2325     Zn  0.94398316  0.91762799  0.08555935     1.49360
Zn2326     Zn  0.99703461  0.94821485  0.07747137     1.49110
Zn2327     Zn  0.95638159  0.95743649  0.14983988     1.49480
O2328       O  0.96049590  0.95023804  0.09231470    -1.83130
O2329       O  0.91239995  0.96279963  0.03120931    -0.73760
O2330       O  0.96748017  0.89104737  0.06124929    -0.73580
O2331       O  0.50522229  0.97892883  0.03724864    -0.73100
O2332       O  0.91279838  0.92208780  0.05244244    -0.73780
O2333       O  0.96641876  0.49584436  0.02563863    -0.73380
O2334       O  0.50486806  0.91146816  0.05480714    -0.73960
O2335       O  0.98852432  0.94926862  0.17857374    -0.73350
O2336       O  0.93324810  0.90344646  0.14031588    -0.74110
O2337       O  0.51885746  0.94821123  0.13074985    -0.73980
O2338       O  0.92907951  0.93743911  0.18011986    -0.73970
O2339       O  0.94941484  0.99351399  0.15833066    -0.73870
O2340       O  0.92827733  0.50469164  0.10207112    -0.73660
C2341       C  0.90266960  0.94040740  0.03255188     0.78130
C2342       C  0.99143111  0.89082837  0.05371884     0.78620
C2343       C  0.99054339  0.99540453  0.01944652     0.77580
C2344       C  0.51177992  0.94641713  0.16813682     0.77950
C2345       C  0.92679309  0.91353448  0.17420771     0.79090
C2346       C  0.93588070  0.50926118  0.13830275     0.78140
Zn2347     Zn  0.53591576  0.92524570  0.29130921     1.49720
Zn2348     Zn  0.56770305  0.87285470  0.30278121     1.49360
Zn2349     Zn  0.57701565  0.91098262  0.22646137     1.49110
Zn2350     Zn  0.59530132  0.92952834  0.31326032     1.49480
O2351       O  0.56905676  0.90916058  0.28435624    -1.83130
O2352       O  0.51014201  0.90152906  0.31587003    -0.73760
O2353       O  0.57074319  0.84834934  0.25279696    -0.73580
O2354       O  0.55244728  0.93159750  0.19163926    -0.73100
O2355       O  0.53072654  0.86455679  0.32544972    -0.73780
O2356       O  0.52125178  0.93646070  0.23689614    -0.73380
O2357       O  0.57545506  0.87660877  0.20242766    -0.73960
O2358       O  0.62311140  0.94291290  0.27549412    -0.73350
O2359       O  0.59774189  0.86722652  0.34389932    -0.74110
O2360       O  0.61149763  0.92392559  0.21760986    -0.73500
O2361       O  0.61367384  0.90667636  0.35358466    -0.73970
O2362       O  0.57965867  0.96038079  0.34131757    -0.73870
O2363       O  0.53828444  0.95600916  0.32598917    -0.73660
C2364       C  0.51001062  0.87793203  0.32557329     0.78130
C2365       C  0.57223464  0.85381614  0.21479313     0.78620
C2366       C  0.52975989  0.93845641  0.20053359     0.77580
C2367       C  0.62725690  0.93695579  0.23844297     0.77950
C2368       C  0.61368730  0.88265570  0.36102259     0.79090
C2369       C  0.55650311  0.96814994  0.34293670     0.78140
Zn2370     Zn  0.66384938  0.80792533  0.49357955     1.49720
Zn2371     Zn  0.64156307  0.86594064  0.48261373     1.49360
Zn2372     Zn  0.69912014  0.85410033  0.00397073     1.49110
Zn2373     Zn  0.68190369  0.84458643  0.41523094     1.49480
O2374       O  0.67090081  0.84289075  0.47287950    -1.83130
O2375       O  0.62754158  0.80549801  0.01272431    -0.73760
O2376       O  0.64995262  0.89518466  0.02319355    -0.73580
O2377       O  0.71158679  0.82974494  0.04314053    -0.73100
O2378       O  0.61266414  0.84546865  0.00674089    -0.73780
O2379       O  0.68655830  0.79565725  0.04213727    -0.73380
O2380       O  0.68984004  0.88302780  0.03713371    -0.73960
O2381       O  0.71749044  0.86364737  0.40690677    -0.73350
O2382       O  0.62725040  0.87860098  0.42921380    -0.74110
O2383       O  0.72896245  0.86337824  0.47202898    -0.73500
O2384       O  0.65163631  0.85994409  0.38153679    -0.73970
O2385       O  0.68782569  0.80784942  0.39815334    -0.73870
O2386       O  0.67031797  0.78371578  0.44751638    -0.73660
C2387       C  0.60981936  0.82207613  0.01689868     0.78130
C2388       C  0.67084550  0.89752618  0.04317924     0.78620
C2389       C  0.70555158  0.80798391  0.05667692     0.77580
C2390       C  0.73414180  0.86764535  0.43501852     0.77950
C2391       C  0.63187067  0.87307374  0.39203497     0.79090
C2392       C  0.68165222  0.78613698  0.41326841     0.78140
Zn2393     Zn  0.53817585  0.67757285  0.21716223     1.49720
Zn2394     Zn  0.57989281  0.66242611  0.28135985     1.49360
Zn2395     Zn  0.56779713  0.62455802  0.20530824     1.49110
Zn2396     Zn  0.59708335  0.67981910  0.19307775     1.49480
O2397       O  0.57088744  0.66051520  0.22371636    -1.83130
O2398       O  0.52563663  0.69171209  0.27001361    -0.73760
O2399       O  0.57950713  0.62763934  0.30527054    -0.73580
O2400       O  0.52965180  0.61745008  0.18696921    -0.73100
O2401       O  0.55512132  0.68254283  0.31650363    -0.73780
O2402       O  0.51005217  0.65467747  0.19829186    -0.73380
O2403       O  0.57231010  0.60004939  0.25457826    -0.73960
O2404       O  0.61236703  0.65749980  0.15042424    -0.73350
O2405       O  0.61412152  0.67694758  0.28916590    -0.74110
O2406       O  0.59613184  0.61833472  0.16130044    -0.73500
O2407       O  0.62768050  0.68944045  0.22800854    -0.73970
O2408       O  0.58212013  0.71181057  0.16674797    -0.73870
O2409       O  0.54052060  0.70631690  0.17921334    -0.73660
C2410       C  0.53354932  0.69205128  0.30672491     0.78130
C2411       C  0.57524188  0.60505051  0.29251773     0.78620
C2412       C  0.50913280  0.63113178  0.18870227     0.77580
C2413       C  0.61169931  0.63359963  0.14294456     0.77950
C2414       C  0.63112491  0.68659849  0.26617163     0.79090
C2415       C  0.55878065  0.71880056  0.16320669     0.78140
Zn2416     Zn  0.64056265  0.61730899  0.02130696     1.49720
Zn2417     Zn  0.69748838  0.60548795  0.00489709     1.49360
Zn2418     Zn  0.68090205  0.59613549  0.09319068     1.49110
Zn2419     Zn  0.66471607  0.55932946  0.01108887     1.49480
O2420       O  0.66982436  0.59421250  0.03422710    -1.83130
O2421       O  0.64869669  0.64719204  0.47937644    -0.73760
O2422       O  0.72456139  0.61713608  0.03876762    -0.73580
O2423       O  0.65001583  0.61200749  0.12351626    -0.73100
O2424       O  0.68822933  0.63335101  0.47067410    -0.73780
O2425       O  0.62506418  0.62901434  0.07464542    -0.73380
O2426       O  0.71774983  0.61531731  0.10470119    -0.73960
O2427       O  0.67210817  0.53598080  0.05713269    -0.73350
O2428       O  0.71206679  0.58138276  0.46717396    -0.74110
O2429       O  0.68357742  0.55892139  0.11224349    -0.73500
O2430       O  0.68766019  0.54729400  0.46197112    -0.73970
O2431       O  0.62838643  0.55577841  0.49206085    -0.73870
O2432       O  0.61288379  0.59565101  0.99654084    -0.73660
C2433       C  0.67035505  0.64850609  0.46124923     0.78130
C2434       C  0.73238075  0.62120733  0.07462068     0.78620
C2435       C  0.62974147  0.62398946  0.11208353     0.77580
C2436       C  0.67958560  0.53754850  0.09410845     0.77950
C2437       C  0.70696190  0.56023640  0.45029210     0.79090
C2438       C  0.61047254  0.57208707  0.48706998     0.78140
Zn2439     Zn  0.78042699  0.79293659  0.09806458     1.49720
Zn2440     Zn  0.79610288  0.83492861  0.16141918     1.49360
Zn2441     Zn  0.74298088  0.80566719  0.17428341     1.49110
Zn2442     Zn  0.79781179  0.77604428  0.18672519     1.49480
O2443       O  0.77881047  0.80230785  0.15565551    -1.83130
O2444       O  0.80053925  0.81716079  0.06173752    -0.73760
O2445       O  0.77337074  0.86327118  0.18071962    -0.73580
O2446       O  0.71845532  0.80136941  0.12532935    -0.73100
O2447       O  0.80924598  0.84717049  0.10756127    -0.73780
O2448       O  0.74565372  0.79348417  0.07439480    -0.73380
O2449       O  0.73608306  0.84383001  0.19226784    -0.73960
O2450       O  0.77554214  0.76132429  0.22994967    -0.73350
O2451       O  0.82553477  0.83227618  0.19855527    -0.74110
O2452       O  0.73642442  0.77741154  0.21820229    -0.73500
O2453       O  0.83019823  0.79068760  0.21222128    -0.73970
O2454       O  0.80664477  0.74497037  0.15242891    -0.73870
O2455       O  0.79422003  0.75844463  0.09115767    -0.73660
C2456       C  0.80959095  0.83901554  0.07095257     0.78130
C2457       C  0.74980734  0.86429898  0.19028791     0.78620
C2458       C  0.72322770  0.79814759  0.08741278     0.77580
C2459       C  0.75159331  0.76195990  0.23699892     0.77950
C2460       C  0.83773238  0.81389864  0.21495730     0.79090
C2461       C  0.80355551  0.74136897  0.11436534     0.78140
Zn2462     Zn  0.71378607  0.69281407  0.28613787     1.49720
Zn2463     Zn  0.72316923  0.67589320  0.37426572     1.49360
Zn2464     Zn  0.73501185  0.73284845  0.35840654     1.49110
Zn2465     Zn  0.67696190  0.70882694  0.36805690     1.49480
O2466       O  0.71192443  0.70367000  0.34513444    -1.83130
O2467       O  0.73312445  0.65614289  0.27416010    -0.73760
O2468       O  0.75098917  0.68505154  0.40896886    -0.73580
O2469       O  0.74690772  0.74839555  0.30519426    -0.73100
O2470       O  0.73497188  0.64897712  0.34001669    -0.73780
O2471       O  0.72958346  0.72383845  0.25610081    -0.73380
O2472       O  0.76485599  0.72459933  0.40048648    -0.73960
O2473       O  0.67331590  0.74497873  0.38739335    -0.73350
O2474       O  0.69865366  0.66118652  0.41131848    -0.74110
O2475       O  0.71320456  0.76045461  0.38319900    -0.73500
O2476       O  0.66460329  0.68568648  0.41647765    -0.73970
O2477       O  0.65353983  0.70150190  0.32237328    -0.73870
O2478       O  0.67652463  0.68979207  0.26748057    -0.73660
C2479       C  0.73907733  0.64137026  0.30404238     0.78130
C2480       C  0.76614845  0.70290851  0.41855648     0.78620
C2481       C  0.74179145  0.74393075  0.26772013     0.77580
C2482       C  0.68962128  0.76284553  0.39259937     0.77950
C2483       C  0.67738388  0.66622807  0.42790199     0.79090
C2484       C  0.65514041  0.69369818  0.28562796     0.78140
Zn2485     Zn  0.89382860  0.57350582  0.18911609     1.49720
Zn2486     Zn  0.91279807  0.58664554  0.27825291     1.49360
Zn2487     Zn  0.95336444  0.57296462  0.21385418     1.49110
Zn2488     Zn  0.92491559  0.62678802  0.20536417     1.49480
O2489       O  0.92108318  0.59053284  0.22065951    -1.83130
O2490       O  0.86297805  0.56439741  0.22447052    -0.73760
O2491       O  0.93397565  0.56128693  0.31051774    -0.73580
O2492       O  0.94868810  0.54330783  0.17824818    -0.73100
O2493       O  0.87691619  0.57724459  0.28530046    -0.73780
O2494       O  0.90766213  0.54256557  0.15870280    -0.73380
O2495       O  0.96667544  0.56081856  0.26750491    -0.73960
O2496       O  0.96305429  0.63311469  0.18786714    -0.73350
O2497       O  0.91895882  0.61973871  0.30630518    -0.74110
O2498       O  0.98202091  0.59499861  0.19336247    -0.73500
O2499       O  0.92281821  0.64917312  0.25736942    -0.73970
O2500       O  0.89613342  0.63578205  0.16201628    -0.73870
O2501       O  0.87893052  0.59738604  0.14882402    -0.73660
C2502       C  0.85943912  0.56834605  0.26242770     0.78130
C2503       C  0.95731561  0.55667505  0.30267033     0.78620
C2504       C  0.93028584  0.53328174  0.15853319     0.77580
C2505       C  0.98331110  0.61902577  0.18748517     0.77950
C2506       C  0.92274287  0.64275818  0.29511316     0.79090
C2507       C  0.88005907  0.62138602  0.14280046     0.78140
Zn2508     Zn  0.82623582  0.69608905  0.01271638     1.49720
Zn2509     Zn  0.80998119  0.65866932  0.09413399     1.49360
Zn2510     Zn  0.79323503  0.64978261  0.00513152     1.49110
Zn2511     Zn  0.84945920  0.63780877  0.02147983     1.49480
O2512       O  0.82069493  0.66091247  0.03506383    -1.83130
O2513       O  0.81804838  0.71891513  0.05827449    -0.73760
O2514       O  0.77322266  0.63906781  0.10498792    -0.73580
O2515       O  0.77855231  0.67461321  0.46865740    -0.73100
O2516       O  0.80667023  0.69587718  0.11326657    -0.73780
O2517       O  0.80346015  0.70838758  0.46344071    -0.73380
O2518       O  0.76635133  0.63772758  0.03896199    -0.73960
O2519       O  0.84152803  0.60759038  0.47981130    -0.73350
O2520       O  0.84140487  0.64314933  0.12438073    -0.74110
O2521       O  0.80244760  0.62221216  0.46968911    -0.73500
O2522       O  0.86626450  0.62702082  0.07472080    -0.73970
O2523       O  0.87552255  0.65991103  0.99477515    -0.73870
O2524       O  0.86299494  0.70085229  0.49620500    -0.73660
C2525       C  0.81038733  0.71727893  0.09503724     0.78130
C2526       C  0.75859369  0.63335258  0.07475549     0.78620
C2527       C  0.78382580  0.69581540  0.45203430     0.77580
C2528       C  0.82019280  0.60677615  0.46064822     0.77950
C2529       C  0.86190768  0.63173850  0.11240221     0.79090
C2530       C  0.87949734  0.68364234  0.48794257     0.78140
Zn2531     Zn  0.51824144  0.83042680  0.12710179     1.49720
Zn2532     Zn  0.50676275  0.77299102  0.10823120     1.49360
Zn2533     Zn  0.52769701  0.81340524  0.03928119     1.49110
Zn2534     Zn  0.56485227  0.79581158  0.11791057     1.49480
O2535       O  0.52972110  0.80238478  0.09692344    -1.83130
O2536       O  0.98868479  0.82002006  0.15685260    -0.73760
O2537       O  0.99572124  0.75725692  0.05481058    -0.73580
O2538       O  0.50762423  0.84881979  0.03125742    -0.73100
O2539       O  0.97604716  0.78005853  0.14769852    -0.73780
O2540       O  0.50951377  0.86090530  0.09596529    -0.73380
O2541       O  0.51257941  0.78253748  0.00647439    -0.73960
O2542       O  0.58878685  0.80411425  0.07257794    -0.73350
O2543       O  0.52823657  0.74638601  0.13516097    -0.74110
O2544       O  0.56458520  0.81978592  0.02169525    -0.73500
O2545       O  0.56912906  0.75897964  0.13408411    -0.73970
O2546       O  0.57583676  0.81767392  0.16847584    -0.73870
O2547       O  0.54135038  0.84217028  0.16898880    -0.73660
C2548       C  0.97368049  0.80173211  0.16522004     0.78130
C2549       C  0.00052811  0.76215970  0.01742632     0.78620
C2550       C  0.50427643  0.86578942  0.05917074     0.77580
C2551       C  0.58636395  0.81456879  0.03764118     0.77950
C2552       C  0.55193675  0.74246894  0.14230362     0.79090
C2553       C  0.56291434  0.83616033  0.18344574     0.78140
Zn2554     Zn  0.99787732  0.69849877  0.42709812     1.49720
Zn2555     Zn  0.94538388  0.66821060  0.41648774     1.49360
Zn2556     Zn  0.94327829  0.72818658  0.43861107     1.49110
Zn2557     Zn  0.95857882  0.70834581  0.35088641     1.49480
O2558       O  0.96174939  0.70102884  0.40898907    -1.83130
O2559       O  0.50567503  0.66189829  0.45042947    -0.73760
O2560       O  0.91577964  0.67187971  0.45204260    -0.73580
O2561       O  0.96632436  0.74406114  0.48072829    -0.73100
O2562       O  0.96871041  0.64172097  0.43944410    -0.73780
O2563       O  0.50551945  0.72867642  0.46750259    -0.73380
O2564       O  0.91087860  0.71362149  0.46480049    -0.73960
O2565       O  0.94584170  0.74324222  0.34110003    -0.73350
O2566       O  0.93279164  0.65304044  0.36346406    -0.74110
O2567       O  0.93419289  0.75829099  0.40181883    -0.73500
O2568       O  0.93718620  0.68375993  0.31741909    -0.73970
O2569       O  0.99263744  0.70480325  0.32607671    -0.73870
O2570       O  0.52101565  0.69901484  0.37618106    -0.73660
C2571       C  0.99223021  0.64130539  0.44937401     0.78130
C2572       C  0.90341480  0.69035478  0.46772552     0.78620
C2573       C  0.99048116  0.74412586  0.48655395     0.77580
C2574       C  0.93691617  0.76100027  0.36344275     0.77950
C2575       C  0.93041312  0.66117098  0.32700790     0.79090
C2576       C  0.51527223  0.70012691  0.33825319     0.78140
Zn2577     Zn  0.81372829  0.54717270  0.86507720     1.49720
Zn2578     Zn  0.77653022  0.56377945  0.78346319     1.49360
Zn2579     Zn  0.75529745  0.52429595  0.85570225     1.49110
Zn2580     Zn  0.76774366  0.58031150  0.87272562     1.49480
O2581       O  0.77870663  0.55292163  0.84251143    -1.83130
O2582       O  0.83668783  0.55512274  0.81919292    -0.73760
O2583       O  0.76082268  0.53248319  0.75304267    -0.73580
O2584       O  0.77679022  0.99792025  0.88255421    -0.73100
O2585       O  0.81379105  0.56658646  0.76404628    -0.73780
O2586       O  0.81780659  0.51021287  0.88132519    -0.73380
O2587       O  0.74459864  0.50756917  0.80252891    -0.73960
O2588       O  0.74014145  0.57113038  0.90792933    -0.73350
O2589       O  0.75701960  0.60071096  0.77307796    -0.74110
O2590       O  0.72510466  0.53230441  0.89697654    -0.73500
O2591       O  0.75572171  0.60726667  0.83918127    -0.73970
O2592       O  0.79235424  0.59485996  0.90960760    -0.73870
O2593       O  0.82589540  0.56967163  0.91510979    -0.73660
C2594       C  0.83516206  0.56255641  0.78223556     0.78130
C2595       C  0.74938813  0.51196685  0.76490698     0.78620
C2596       C  0.80046874  0.99378418  0.88939909     0.77580
C2597       C  0.72450869  0.55349137  0.91650864     0.77950
C2598       C  0.75130917  0.61519113  0.80350095     0.79090
C2599       C  0.81335459  0.58932498  0.92664098     0.78140
Zn2600     Zn  0.70520783  0.96040059  0.59948230     1.49720
Zn2601     Zn  0.74517498  0.94851529  0.67270079     1.49360
Zn2602     Zn  0.69138900  0.97953383  0.68805387     1.49110
Zn2603     Zn  0.69142538  0.91993739  0.66431278     1.49480
O2604       O  0.70887264  0.95225555  0.65711076    -1.83130
O2605       O  0.73847302  0.95443351  0.57189577    -0.73760
O2606       O  0.75372181  0.97752530  0.71583085    -0.73580
O2607       O  0.68184592  0.50996933  0.65209137    -0.73100
O2608       O  0.76787837  0.95051419  0.62086466    -0.73780
O2609       O  0.69513348  0.99605163  0.59153111    -0.73380
O2610       O  0.71522681  0.99486384  0.72809287    -0.73960
O2611       O  0.66181349  0.92459503  0.69964881    -0.73350
O2612       O  0.75166066  0.91043490  0.69075659    -0.74110
O2613       O  0.66026337  0.96573458  0.71829370    -0.73500
O2614       O  0.71364635  0.89134526  0.68480042    -0.73970
O2615       O  0.67858898  0.90659441  0.61124515    -0.73870
O2616       O  0.68015885  0.93891341  0.56751071    -0.73660
C2617       C  0.76149584  0.95062896  0.58310151     0.78130
C2618       C  0.73920263  0.99374970  0.73449634     0.78620
C2619       C  0.68573627  0.51340651  0.61409820     0.77580
C2620       C  0.65129737  0.94298517  0.71864395     0.77950
C2621       C  0.73764787  0.89013049  0.69107759     0.79090
C2622       C  0.67467696  0.91585272  0.57595436     0.78140
Zn2623     Zn  0.82596712  0.91375659  0.52616716     1.49720
Zn2624     Zn  0.78569906  0.92764970  0.96137426     1.49360
Zn2625     Zn  0.84516949  0.93061445  0.93897162     1.49110
Zn2626     Zn  0.81643073  0.87505988  0.95029321     1.49480
O2627       O  0.81846132  0.91128160  0.96823615    -1.83130
O2628       O  0.80262539  0.93647548  0.56015258    -0.73760
O2629       O  0.78869966  0.95748550  0.92564878    -0.73580
O2630       O  0.87381170  0.94185966  0.97673959    -0.73100
O2631       O  0.77128580  0.94006094  0.51490882    -0.73780
O2632       O  0.86180159  0.92331024  0.53487771    -0.73380
O2633       O  0.83028336  0.96227913  0.91192105    -0.73960
O2634       O  0.84671067  0.86831555  0.90932813    -0.73350
O2635       O  0.75930986  0.90394640  0.93935924    -0.74110
O2636       O  0.86254427  0.90756652  0.89765397    -0.73500
O2637       O  0.77973233  0.86715484  0.92755412    -0.73970
O2638       O  0.81726841  0.85132010  0.00115033    -0.73870
O2639       O  0.82098462  0.88011049  0.55093062    -0.73660
C2640       C  0.77981253  0.94289194  0.55106146     0.78130
C2641       C  0.80705942  0.96979895  0.90948743     0.78620
C2642       C  0.87814915  0.93526917  0.51349948     0.77580
C2643       C  0.86250057  0.88344830  0.89107686     0.77950
C2644       C  0.75903843  0.88043508  0.92934127     0.79090
C2645       C  0.81730765  0.85728305  0.53905854     0.78140
Zn2646     Zn  0.94917836  0.85365683  0.75258021     1.49720
Zn2647     Zn  0.93122262  0.84357755  0.84097087     1.49360
Zn2648     Zn  0.89268010  0.86529507  0.76994760     1.49110
Zn2649     Zn  0.91485693  0.80661007  0.76055376     1.49480
O2650       O  0.92112682  0.84194111  0.78247867    -1.83130
O2651       O  0.97923181  0.86171998  0.78381503    -0.73760
O2652       O  0.90090439  0.86090625  0.87224211    -0.73580
O2653       O  0.90156449  0.89424445  0.72820303    -0.73100
O2654       O  0.96824400  0.86126387  0.84912675    -0.73780
O2655       O  0.94158948  0.88204761  0.71687754    -0.73380
O2656       O  0.87647613  0.87782736  0.82285323    -0.73960
O2657       O  0.87793838  0.80292467  0.74375326    -0.73350
O2658       O  0.93378842  0.80648175  0.86089702    -0.74110
O2659       O  0.86578453  0.84399660  0.74315881    -0.73500
O2660       O  0.92289073  0.78313215  0.80609593    -0.73970
O2661       O  0.93712638  0.79423085  0.71083934    -0.73870
O2662       O  0.96016587  0.82925130  0.71456997    -0.73660
C2663       C  0.98482601  0.86533895  0.82076486     0.78130
C2664       C  0.88091168  0.87333125  0.86056374     0.78620
C2665       C  0.92268583  0.89620107  0.70869222     0.77580
C2666       C  0.86160103  0.82037414  0.73572112     0.77950
C2667       C  0.93029163  0.78493904  0.84303532     0.79090
C2668       C  0.95565245  0.80793385  0.69824718     0.78140
Zn2669     Zn  0.50659618  0.52461147  0.89748257     1.49720
Zn2670     Zn  0.52854322  0.56420431  0.96520434     1.49360
Zn2671     Zn  0.56508067  0.54553075  0.88666027     1.49110
Zn2672     Zn  0.51911672  0.58116500  0.87548738     1.49480
O2673       O  0.53014116  0.55326477  0.90738069    -1.83130
O2674       O  0.99546998  0.50903887  0.95124197    -0.73760
O2675       O  0.56540908  0.57004790  0.98210686    -0.73580
O2676       O  0.56782375  0.50845687  0.87061081    -0.73100
O2677       O  0.51325819  0.53372393  0.49934855    -0.73780
O2678       O  0.52661717  0.99692755  0.87017513    -0.73380
O2679       O  0.58939478  0.55306171  0.93211540    -0.73960
O2680       O  0.54422154  0.59427001  0.83826876    -0.73350
O2681       O  0.50962332  0.60011014  0.97284370    -0.74110
O2682       O  0.57696658  0.56747659  0.83647963    -0.73500
O2683       O  0.50857567  0.61055498  0.90725021    -0.73970
O2684       O  0.99112400  0.57152970  0.84011771    -0.73870
O2685       O  0.97653236  0.53326228  0.85843838    -0.73660
C2686       C  0.00072486  0.51359251  0.98860736     0.78130
C2687       C  0.58709063  0.56415061  0.96657752     0.78620
C2688       C  0.55016522  0.99229738  0.86295045     0.77580
C2689       C  0.56542104  0.58743855  0.82349593     0.77950
C2690       C  0.50484507  0.61624266  0.94421614     0.79090
C2691       C  0.97557211  0.55317834  0.83583087     0.78140
Zn2692     Zn  0.94208691  0.97741700  0.56320464     1.49720
Zn2693     Zn  0.94398152  0.91762680  0.58555990     1.49360
Zn2694     Zn  0.99703285  0.94821361  0.57747074     1.49110
Zn2695     Zn  0.95638063  0.95743558  0.64984013     1.49480
O2696       O  0.96049431  0.95023688  0.59231494    -1.83130
O2697       O  0.91239802  0.96279853  0.53121098    -0.73760
O2698       O  0.96747872  0.89104594  0.56125096    -0.73580
O2699       O  0.50521998  0.97892727  0.53724731    -0.73100
O2700       O  0.91279702  0.92208633  0.55244236    -0.73780
O2701       O  0.96641648  0.49584313  0.52563836    -0.73380
O2702       O  0.50486629  0.91146703  0.55480645    -0.73960
O2703       O  0.98852353  0.94926766  0.67857325    -0.73350
O2704       O  0.93324615  0.90344582  0.64031644    -0.74110
O2705       O  0.51885631  0.94821035  0.63074879    -0.73980
O2706       O  0.92907866  0.93743852  0.68012070    -0.73970
O2707       O  0.94941450  0.99351320  0.65833113    -0.73870
O2708       O  0.92827615  0.50469077  0.60207238    -0.73660
C2709       C  0.90266806  0.94040613  0.53255250     0.78130
C2710       C  0.99142951  0.89082710  0.55371934     0.78620
C2711       C  0.99054101  0.99540301  0.51944547     0.77580
C2712       C  0.51177909  0.94641637  0.66813595     0.77950
C2713       C  0.92679167  0.91353396  0.67420843     0.79090
C2714       C  0.93588016  0.50926044  0.63830365     0.78140
Zn2715     Zn  0.53591547  0.92524627  0.79130872     1.49720
Zn2716     Zn  0.56770281  0.87285517  0.80278118     1.49360
Zn2717     Zn  0.57701535  0.91098284  0.72646082     1.49110
Zn2718     Zn  0.59530104  0.92952870  0.81325999     1.49480
O2719       O  0.56905645  0.90916101  0.78435584    -1.83130
O2720       O  0.51014173  0.90152946  0.81586926    -0.73760
O2721       O  0.57074281  0.84834972  0.75279705    -0.73580
O2722       O  0.55244669  0.93159713  0.69163818    -0.73100
O2723       O  0.53072632  0.86455730  0.82544988    -0.73780
O2724       O  0.52125148  0.93646089  0.73689541    -0.73380
O2725       O  0.57545520  0.87660885  0.70242744    -0.73960
O2726       O  0.62311109  0.94291322  0.77549377    -0.73350
O2727       O  0.59774181  0.86722697  0.84389918    -0.74110
O2728       O  0.61149724  0.92392611  0.71760936    -0.73500
O2729       O  0.61367374  0.90667680  0.85358437    -0.73970
O2730       O  0.57965842  0.96038116  0.84131714    -0.73870
O2731       O  0.53828414  0.95600994  0.82598874    -0.73660
C2732       C  0.51001037  0.87793249  0.82557295     0.78130
C2733       C  0.57223456  0.85381631  0.71479316     0.78620
C2734       C  0.52975934  0.93845612  0.70053263     0.77580
C2735       C  0.62725655  0.93695620  0.73844258     0.77950
C2736       C  0.61368728  0.88265615  0.86102233     0.79090
C2737       C  0.55650294  0.96815055  0.84293629     0.78140
Zn2738     Zn  0.66384975  0.80792564  0.99357921     1.49720
Zn2739     Zn  0.64156326  0.86594090  0.98261344     1.49360
Zn2740     Zn  0.69911992  0.85410000  0.50397094     1.49110
Zn2741     Zn  0.68190406  0.84458699  0.91523057     1.49480
O2742       O  0.67090109  0.84289110  0.97287912    -1.83130
O2743       O  0.62754121  0.80549785  0.51272458    -0.73760
O2744       O  0.64995247  0.89518438  0.52319384    -0.73580
O2745       O  0.71158651  0.82974459  0.54314077    -0.73100
O2746       O  0.61266383  0.84546851  0.50674109    -0.73780
O2747       O  0.68655787  0.79565699  0.54213763    -0.73380
O2748       O  0.68983989  0.88302752  0.53713400    -0.73960
O2749       O  0.71749100  0.86364794  0.90690686    -0.73350
O2750       O  0.62725040  0.87860120  0.92921355    -0.74110
O2751       O  0.72896275  0.86337870  0.97202917    -0.73500
O2752       O  0.65163658  0.85994479  0.88153640    -0.73970
O2753       O  0.68782602  0.80784988  0.89815288    -0.73870
O2754       O  0.67031836  0.78371620  0.94751596    -0.73660
C2755       C  0.60981901  0.82207600  0.51689889     0.78130
C2756       C  0.67084534  0.89752589  0.54317956     0.78620
C2757       C  0.70555120  0.80798360  0.55667724     0.77580
C2758       C  0.73414227  0.86764590  0.93501881     0.77950
C2759       C  0.63187076  0.87307419  0.89203466     0.79090
C2760       C  0.68165257  0.78613743  0.91326796     0.78140
Zn2761     Zn  0.53817592  0.67757281  0.71716209     1.49720
Zn2762     Zn  0.57989304  0.66242674  0.78135966     1.49360
Zn2763     Zn  0.56779737  0.62455824  0.70530833     1.49110
Zn2764     Zn  0.59708358  0.67981928  0.69307773     1.49480
O2765       O  0.57088764  0.66051544  0.72371628    -1.83130
O2766       O  0.52563657  0.69171215  0.77001332    -0.73760
O2767       O  0.57950805  0.62764004  0.80527023    -0.73580
O2768       O  0.52965199  0.61744994  0.68696978    -0.73100
O2769       O  0.55512131  0.68254314  0.81650339    -0.73780
O2770       O  0.51005228  0.65467736  0.69829168    -0.73380
O2771       O  0.57231112  0.60004981  0.75457827    -0.73960
O2772       O  0.61236696  0.65750007  0.65042386    -0.73350
O2773       O  0.61412153  0.67694852  0.78916590    -0.74110
O2774       O  0.59613165  0.61833505  0.66130015    -0.73500
O2775       O  0.62768091  0.68944049  0.72800835    -0.73970
O2776       O  0.58212030  0.71181074  0.66674834    -0.73870
O2777       O  0.54052074  0.70631675  0.67921323    -0.73660
C2778       C  0.53354926  0.69205146  0.80672462     0.78130
C2779       C  0.57524308  0.60505112  0.79251764     0.78620
C2780       C  0.50913296  0.63113160  0.68870247     0.77580
C2781       C  0.61169906  0.63359992  0.64294410     0.77950
C2782       C  0.63112512  0.68659898  0.76617157     0.79090
C2783       C  0.55878079  0.71880055  0.66320688     0.78140
Zn2784     Zn  0.64056133  0.61730844  0.52130632     1.49720
Zn2785     Zn  0.69748735  0.60548756  0.50489674     1.49360
Zn2786     Zn  0.68090124  0.59613530  0.59318997     1.49110
Zn2787     Zn  0.66471474  0.55932904  0.51108851     1.49480
O2788       O  0.66982321  0.59421211  0.53422655    -1.83130
O2789       O  0.64869797  0.64719285  0.97937768    -0.73760
O2790       O  0.72456071  0.61713570  0.53876691    -0.73580
O2791       O  0.65001526  0.61200753  0.62351552    -0.73100
O2792       O  0.68823037  0.63335141  0.97067436    -0.73780
O2793       O  0.62506347  0.62901438  0.57464483    -0.73380
O2794       O  0.71774907  0.61531705  0.60470043    -0.73960
O2795       O  0.67210743  0.53598054  0.55713239    -0.73350
O2796       O  0.71206806  0.58138319  0.96717435    -0.74110
O2797       O  0.68357664  0.55892130  0.61224304    -0.73500
O2798       O  0.68766165  0.54729429  0.96197197    -0.73970
O2799       O  0.62838814  0.55577909  0.99206002    -0.73870
O2800       O  0.61288198  0.59565030  0.49654148    -0.73660
C2801       C  0.67035615  0.64850667  0.96124992     0.78130
C2802       C  0.73238006  0.62120699  0.57461999     0.78620
C2803       C  0.62974097  0.62398962  0.61208291     0.77580
C2804       C  0.67958495  0.53754835  0.59410809     0.77950
C2805       C  0.70696322  0.56023676  0.95029270     0.79090
C2806       C  0.61047441  0.57208787  0.98706883     0.78140
Zn2807     Zn  0.78042649  0.79293600  0.59806452     1.49720
Zn2808     Zn  0.79610269  0.83492834  0.66141870     1.49360
Zn2809     Zn  0.74298074  0.80566720  0.67428352     1.49110
Zn2810     Zn  0.79781163  0.77604407  0.68672499     1.49480
O2811       O  0.77881023  0.80230760  0.65565535    -1.83130
O2812       O  0.80053851  0.81716005  0.56173689    -0.73760
O2813       O  0.77337066  0.86327111  0.68071913    -0.73580
O2814       O  0.71845508  0.80136952  0.62532964    -0.73100
O2815       O  0.80924540  0.84716989  0.60756039    -0.73780
O2816       O  0.74565316  0.79348336  0.57439501    -0.73380
O2817       O  0.73608303  0.84383004  0.69226803    -0.73960
O2818       O  0.77554208  0.76132426  0.72994947    -0.73350
O2819       O  0.82553471  0.83227589  0.69855474    -0.74110
O2820       O  0.73642435  0.77741160  0.71820240    -0.73500
O2821       O  0.83019799  0.79068734  0.71222117    -0.73970
O2822       O  0.80664459  0.74496999  0.65242908    -0.73870
O2823       O  0.79421954  0.75844404  0.59115790    -0.73660
C2824       C  0.80959018  0.83901486  0.57095171     0.78130
C2825       C  0.74980732  0.86429899  0.69028778     0.78620
C2826       C  0.72322726  0.79814724  0.58741311     0.77580
C2827       C  0.75159329  0.76195995  0.73699889     0.77950
C2828       C  0.83773220  0.81389836  0.71495707     0.79090
C2829       C  0.80355515  0.74136846  0.61436559     0.78140
Zn2830     Zn  0.71378627  0.69281418  0.78613778     1.49720
Zn2831     Zn  0.72316975  0.67589336  0.87426534     1.49360
Zn2832     Zn  0.73501215  0.73284867  0.85840647     1.49110
Zn2833     Zn  0.67696233  0.70882723  0.86805694     1.49480
O2834       O  0.71192478  0.70367019  0.84513434    -1.83130
O2835       O  0.73312456  0.65614294  0.77415972    -0.73760
O2836       O  0.75098976  0.68505168  0.90896830    -0.73580
O2837       O  0.74690790  0.74839566  0.80519419    -0.73100
O2838       O  0.73497219  0.64897717  0.84001628    -0.73780
O2839       O  0.72958357  0.72383852  0.75610082    -0.73380
O2840       O  0.76485628  0.72459961  0.90048644    -0.73960
O2841       O  0.67331628  0.74497912  0.88739303    -0.73350
O2842       O  0.69865440  0.66118688  0.91131855    -0.74110
O2843       O  0.71320493  0.76045497  0.88319873    -0.73500
O2844       O  0.66460410  0.68568693  0.91647815    -0.73970
O2845       O  0.65354014  0.70150212  0.82237338    -0.73870
O2846       O  0.67652484  0.68979239  0.76748051    -0.73660
C2847       C  0.73907752  0.64137028  0.80404194     0.78130
C2848       C  0.76614889  0.70290871  0.91855618     0.78620
C2849       C  0.74179153  0.74393083  0.76772011     0.77580
C2850       C  0.68962164  0.76284594  0.89259898     0.77950
C2851       C  0.67738477  0.66622855  0.92790243     0.79090
C2852       C  0.65514066  0.69369852  0.78562797     0.78140
Zn2853     Zn  0.89382883  0.57350573  0.68911648     1.49720
Zn2854     Zn  0.91279857  0.58664535  0.77825350     1.49360
Zn2855     Zn  0.95336473  0.57296435  0.71385440     1.49110
Zn2856     Zn  0.92491568  0.62678784  0.70536444     1.49480
O2857       O  0.92108348  0.59053266  0.72065992    -1.83130
O2858       O  0.86297835  0.56439757  0.72447094    -0.73760
O2859       O  0.93397666  0.56128722  0.81051862    -0.73580
O2860       O  0.94868808  0.54330707  0.67824905    -0.73100
O2861       O  0.87691676  0.57724410  0.78530108    -0.73780
O2862       O  0.90766212  0.54256529  0.65870356    -0.73380
O2863       O  0.96667620  0.56081906  0.76750532    -0.73960
O2864       O  0.96305444  0.63311447  0.68786765    -0.73350
O2865       O  0.91895894  0.61973867  0.80630555    -0.74110
O2866       O  0.98202108  0.59499831  0.69336197    -0.73500
O2867       O  0.92281821  0.64917301  0.75736965    -0.73970
O2868       O  0.89613343  0.63578182  0.66201639    -0.73870
O2869       O  0.87893063  0.59738578  0.64882418    -0.73660
C2870       C  0.85943956  0.56834591  0.76242821     0.78130
C2871       C  0.95731667  0.55667573  0.80267099     0.78620
C2872       C  0.93028568  0.53328112  0.65853412     0.77580
C2873       C  0.98331125  0.61902554  0.68748526     0.77950
C2874       C  0.92274287  0.64275814  0.79511343     0.79090
C2875       C  0.88005909  0.62138576  0.64280058     0.78140
Zn2876     Zn  0.82623547  0.69608879  0.51271654     1.49720
Zn2877     Zn  0.80998080  0.65866875  0.59413404     1.49360
Zn2878     Zn  0.79323473  0.64978227  0.50513153     1.49110
Zn2879     Zn  0.84945907  0.63780862  0.52147984     1.49480
O2880       O  0.82069464  0.66091213  0.53506393    -1.83130
O2881       O  0.81804808  0.71891467  0.55827482    -0.73760
O2882       O  0.77322207  0.63906726  0.60498745    -0.73580
O2883       O  0.77855245  0.67461358  0.96865754    -0.73100
O2884       O  0.80666984  0.69587664  0.61326678    -0.73780
O2885       O  0.80346062  0.70838769  0.96344033    -0.73380
O2886       O  0.76635075  0.63772726  0.53896150    -0.73960
O2887       O  0.84152818  0.60759059  0.97981130    -0.73350
O2888       O  0.84140459  0.64314871  0.62438083    -0.74110
O2889       O  0.80244783  0.62221251  0.96968884    -0.73500
O2890       O  0.86626454  0.62702075  0.57472086    -0.73970
O2891       O  0.87552226  0.65991105  0.49477498    -0.73870
O2892       O  0.86299531  0.70085230  0.99620501    -0.73660
C2893       C  0.81038699  0.71727842  0.59503753     0.78130
C2894       C  0.75859307  0.63335217  0.57475494     0.78620
C2895       C  0.78382615  0.69581564  0.95203414     0.77580
C2896       C  0.82019301  0.60677647  0.96064801     0.77950
C2897       C  0.86190760  0.63173819  0.61240231     0.79090
C2898       C  0.87949770  0.68364230  0.98794273     0.78140
Zn2899     Zn  0.51824124  0.83042631  0.62710240     1.49720
Zn2900     Zn  0.50676257  0.77299060  0.60823164     1.49360
Zn2901     Zn  0.52769670  0.81340467  0.53928162     1.49110
Zn2902     Zn  0.56485213  0.79581151  0.61791094     1.49480
O2903       O  0.52972089  0.80238438  0.59692390    -1.83130
O2904       O  0.98868491  0.82001937  0.65685358    -0.73760
O2905       O  0.99572114  0.75725629  0.55481109    -0.73580
O2906       O  0.50762333  0.84881883  0.53125790    -0.73100
O2907       O  0.97604697  0.78005800  0.64769909    -0.73780
O2908       O  0.50951277  0.86090444  0.59596575    -0.73380
O2909       O  0.51257939  0.78253676  0.50647491    -0.73960
O2910       O  0.58878657  0.80411417  0.57257820    -0.73350
O2911       O  0.52823661  0.74638584  0.63516131    -0.74110
O2912       O  0.56458483  0.81978574  0.52169555    -0.73500
O2913       O  0.56912905  0.75897967  0.63408449    -0.73970
O2914       O  0.57583667  0.81767398  0.66847606    -0.73870
O2915       O  0.54135024  0.84217024  0.66898905    -0.73660
C2916       C  0.97368049  0.80173151  0.66522090     0.78130
C2917       C  0.00052810  0.76215899  0.51742683     0.78620
C2918       C  0.50427522  0.86578839  0.55917124     0.77580
C2919       C  0.58636361  0.81456869  0.53764144     0.77950
C2920       C  0.55193680  0.74246890  0.64230393     0.79090
C2921       C  0.56291424  0.83616040  0.68344591     0.78140
Zn2922     Zn  0.99787750  0.69849941  0.92709790     1.49720
Zn2923     Zn  0.94538425  0.66821075  0.91648779     1.49360
Zn2924     Zn  0.94327839  0.72818665  0.93861117     1.49110
Zn2925     Zn  0.95857877  0.70834586  0.85088637     1.49480
O2926       O  0.96174952  0.70102906  0.90898902    -1.83130
O2927       O  0.50567563  0.66189919  0.95042981    -0.73760
O2928       O  0.91578016  0.67187961  0.95204315    -0.73580
O2929       O  0.96632433  0.74406142  0.98072835    -0.73100
O2930       O  0.96871134  0.64172143  0.93944343    -0.73780
O2931       O  0.50551957  0.72867734  0.96750181    -0.73380
O2932       O  0.91087882  0.71362144  0.96480049    -0.73960
O2933       O  0.94584158  0.74324220  0.84110016    -0.73350
O2934       O  0.93279177  0.65304051  0.86346425    -0.74110
O2935       O  0.93419280  0.75829092  0.90181903    -0.73500
O2936       O  0.93718606  0.68375997  0.81741920    -0.73970
O2937       O  0.99263733  0.70480329  0.82607644    -0.73870
O2938       O  0.52101569  0.69901533  0.87618070    -0.73660
C2939       C  0.99223107  0.64130611  0.94937381     0.78130
C2940       C  0.90341518  0.69035469  0.96772580     0.78620
C2941       C  0.99048117  0.74412653  0.98655350     0.77580
C2942       C  0.93691603  0.76100019  0.86344296     0.77950
C2943       C  0.93041310  0.66117101  0.82700810     0.79090
C2944       C  0.51527217  0.70012714  0.83825285     0.78140
loop_ 
_geom_bond_atom_site_label_1 
_geom_bond_atom_site_label_2 
_geom_bond_distance 
_geom_bond_site_symmetry_2 
_ccdc_geom_bond_type 
Zn1           O5   1.991       .  S
Zn1           O6   1.965       .  S
Zn1          O10   2.009       .  S
Zn1          O17   2.111       .  S
Zn2           O5   2.017       .  S
Zn2           O7   2.079       .  S
Zn2           O9   2.048       .  S
Zn2          O13   2.202       .  S
Zn3           O5   1.975       .  S
Zn3          O11   2.025       .  S
Zn3          O14   2.116       .  S
Zn3         O744   1.978   1_545  S
Zn4           O5   1.828       .  S
Zn4          O12   1.904       .  S
Zn4          O15   1.889       .  S
Zn4          O16   1.917       .  S
O6           C18   1.273       .  A
O7           C19   1.284       .  A
O8         Zn739   1.978       .  S
O8           C20   1.272       .  A
O9           C18   1.280       .  A
O10         C756   1.272   1_545  A
O11          C19   1.277       .  A
O12          C21   1.260       .  A
O13          C22   1.284       .  A
O14          C21   1.276       .  A
O15          C22   1.260       .  A
O16          C23   1.261       .  A
O17          C23   1.272       .  A
C18         C294   1.453       .  S
C19         C778   1.474   1_545  S
C20         O746   1.272       .  A
C20          C65   1.453       .  S
C21         C229   1.478       .  S
C22         C271   1.505       .  S
C23         C320   1.481       .  S
Zn24         O28   1.943       .  S
Zn24         O29   1.979       .  S
Zn24         O33   1.947       .  S
Zn24         O40   2.013       .  S
Zn25         O28   1.968       .  S
Zn25         O30   2.116       .  S
Zn25         O32   2.071       .  S
Zn25         O36   2.097       .  S
Zn26         O28   1.969       .  S
Zn26         O34   1.974       .  S
Zn26         O37   2.032       .  S
Zn26        O767   2.036       .  S
Zn27         O28   1.928       .  S
Zn27         O35   1.944       .  S
Zn27         O38   2.002       .  S
Zn27         O39   1.987       .  S
O29          C41   1.270       .  A
O30          C42   1.289       .  A
O31        Zn762   2.036   1_545  S
O31          C43   1.273       .  A
O32          C41   1.280       .  A
O33         C779   1.266       .  A
O34          C42   1.268       .  A
O35          C44   1.267       .  A
O36          C45   1.286       .  A
O37          C44   1.274       .  A
O38          C45   1.269       .  A
O39          C46   1.268       .  A
O40          C46   1.266       .  A
C41          C64   1.474       .  S
C42         C755   1.474       .  S
C43         O769   1.266   1_545  A
C43         C228   1.453       .  S
C44         C159   1.445       .  S
C45         C249   1.488       .  S
C46         C180   1.450       .  S
Zn47        O419   1.940   1_554  S
Zn47         O52   2.029       .  S
Zn47         O56   1.953       .  S
Zn47         O63   1.949       .  S
Zn48         O51   1.921       .  S
Zn48         O53   1.951       .  S
Zn48         O59   1.984       .  S
Zn48        O423   2.013       .  S
Zn49         O51   1.967       .  S
Zn49         O54   2.024       .  S
Zn49         O57   2.026       .  S
Zn49         O60   2.023       .  S
Zn50         O51   1.979       .  S
Zn50         O58   2.101       .  S
Zn50         O61   2.093       .  S
Zn50         O62   2.074       .  S
O51        Zn415   1.940       .  S
O52          C64   1.270       .  A
O53          C65   1.268       .  A
O54         C434   1.271       .  A
O55        Zn416   2.013   1_554  S
O55          C64   1.272       .  A
O56          C66   1.267       .  A
O57          C65   1.274       .  A
O58          C67   1.287       .  A
O59          C68   1.268       .  A
O60          C67   1.275       .  A
O61          C68   1.282       .  A
O62         C437   1.279       .  A
O63          C69   1.266       .  A
C66         O422   1.271   1_554  A
C66         C133   1.446       .  S
C67          C88   1.482       .  S
C68         C182   1.470       .  S
C69         O430   1.279       .  A
C69         C248   1.469       .  S
Zn70         O74   1.862       .  S
Zn70         O75   1.916       .  S
Zn70         O79   1.926       .  S
Zn70         O86   1.869       .  S
Zn71         O74   1.987       .  S
Zn71         O76   2.088       .  S
Zn71         O78   2.154       .  S
Zn71         O82   2.044       .  S
Zn72         O74   1.961       .  S
Zn72         O77   2.087       .  S
Zn72         O80   2.035       .  S
Zn72         O83   1.991       .  S
Zn73         O74   2.003       .  S
Zn73         O81   2.010       .  S
Zn73         O84   1.973       .  S
Zn73         O85   2.101       .  S
O75          C87   1.258       .  A
O76          C88   1.284       .  A
O77          C89   1.277       .  A
O78          C87   1.286       .  A
O79          C89   1.259       .  A
O80          C88   1.277       .  A
O81          C90   1.273       .  A
O82          C91   1.279       .  A
O83          C90   1.273       .  A
O84          C91   1.272       .  A
O85          C92   1.270       .  A
O86          C92   1.255       .  A
C87        C1628   1.476       .  S
C89         C137   1.461       .  S
C90         C252   1.457       .  S
C91         C366   1.456       .  S
C92         C340   1.468       .  S
Zn93         O97   1.959       .  S
Zn93       O1570   2.023   1_455  S
Zn93        O838   1.992   1_545  S
Zn93       O1581   2.071   1_455  S
Zn94         O97   1.978       .  S
Zn94         O99   2.022       .  S
Zn94        O105   2.129       .  S
Zn94        O469   2.099       .  S
Zn95         O97   1.984       .  S
Zn95        O100   2.007       .  S
Zn95        O103   1.993       .  S
Zn95        O106   2.095       .  S
Zn96         O97   1.879       .  S
Zn96        O104   1.914       .  S
Zn96        O107   1.931       .  S
Zn96       O1580   1.928   1_455  S
O98       Zn1565   2.023       .  S
O98         C110   1.275       .  A
O99         C111   1.277       .  A
O100        C848   1.272   1_545  A
O101       Zn462   2.099       .  S
O101       C1950   1.285       .  A
O102       Zn829   1.992       .  S
O102        C112   1.273       .  A
O103        C111   1.273       .  A
O104        C113   1.257       .  A
O105        C114   1.283       .  A
O106        C113   1.274       .  A
O107        C114   1.261       .  A
O108      Zn1568   1.928       .  S
O108        C115   1.261       .  A
O109      Zn1565   2.071       .  S
O109        C115   1.275       .  A
C110       O1941   1.285       .  A
C110       C1239   1.483   1_545  S
C111        C230   1.451       .  S
C112        O836   1.272       .  A
C112        C161   1.456       .  S
C113        C203   1.460       .  S
C114       C1835   1.472   1_455  S
C115        C295   1.454       .  S
Zn116       O120   1.957       .  S
Zn116       O121   2.017       .  S
Zn116       O861   2.011       .  S
Zn116       O868   2.039       .  S
Zn117       O120   1.917       .  S
Zn117       O122   2.013       .  S
Zn117       O124   1.966       .  S
Zn117       O128   2.018       .  S
Zn118       O120   1.968       .  S
Zn118      O1595   2.116       .  S
Zn118      O1598   2.093       .  S
Zn118      O1601   2.081       .  S
Zn119       O120   1.932       .  S
Zn119       O127   1.967       .  S
Zn119       O130   2.023       .  S
Zn119       O131   1.934       .  S
O121        C133   1.273       .  A
O122        C134   1.272       .  A
O123      Zn1590   2.116   1_455  S
O123       C1607   1.289   1_455  A
O124        C133   1.270       .  A
O125       Zn852   2.011       .  S
O125        C871   1.274       .  A
O126      Zn1590   2.093   1_455  S
O126       C1606   1.284   1_455  A
O127       C1608   1.268       .  A
O128        C137   1.273       .  A
O129      Zn1590   2.081   1_455  S
O129        C136   1.282       .  A
O130        C137   1.266       .  A
O131        C874   1.265       .  A
O132       Zn852   2.039   1_545  S
O132        C138   1.273       .  A
C134       O1598   1.284       .  A
C134       C1814   1.477       .  S
C135       O1595   1.289       .  A
C135        O861   1.274       .  A
C135       C1214   1.483   1_554  S
C136       O1599   1.268   1_455  A
C136        C158   1.474       .  S
C138        O867   1.265   1_545  A
C138        C296   1.446       .  S
Zn139       O143   1.933       .  S
Zn139       O144   1.994       .  S
Zn139       O148   2.024       .  S
Zn139       O155   1.968       .  S
Zn140       O143   1.987       .  S
Zn140       O145   2.082       .  S
Zn140       O147   2.110       .  S
Zn140       O151   2.084       .  S
Zn141       O143   1.942       .  S
Zn141       O146   2.022       .  S
Zn141       O149   1.958       .  S
Zn141       O152   1.941       .  S
Zn142       O143   1.972       .  S
Zn142       O150   2.029       .  S
Zn142       O153   2.018       .  S
Zn142       O154   2.023       .  S
O144        C156   1.270       .  A
O145        C157   1.278       .  A
O146        C158   1.269       .  A
O147        C156   1.285       .  A
O148        C158   1.275       .  A
O149        C157   1.266       .  A
O150        C159   1.270       .  A
O151        C160   1.285       .  A
O152        C159   1.265       .  A
O153        C160   1.275       .  A
O154        C161   1.274       .  A
O155        C161   1.268       .  A
C156       C1559   1.476   1_455  S
C157        C345   1.461       .  S
C160        C183   1.475       .  S
Zn162       O166   1.978       .  S
Zn162       O178   1.995       .  S
Zn162       O535   1.997       .  S
Zn162       O539   2.081       .  S
Zn163       O166   1.970       .  S
Zn163       O174   2.011       .  S
Zn163       O536   2.068       .  S
Zn163       O538   2.008       .  S
Zn164       O534   1.881   1_554  S
Zn164       O169   1.917       .  S
Zn164       O172   1.919       .  S
Zn164       O543   1.936   1_554  S
Zn165       O166   1.974       .  S
Zn165       O173   2.121       .  S
Zn165       O176   2.083       .  S
Zn165       O177   2.018       .  S
O166       Zn532   1.881       .  S
O167       Zn530   1.997   1_554  S
O167        C179   1.272       .  A
O168       Zn531   2.068   1_554  S
O168        C180   1.276       .  A
O169        C181   1.257       .  A
O170       Zn531   2.008   1_554  S
O170        C179   1.272       .  A
O171       Zn530   2.081   1_554  S
O171        C181   1.272       .  A
O172        C180   1.261       .  A
O173        C182   1.281       .  A
O174        C183   1.274       .  A
O175       Zn532   1.936       .  S
O175        C182   1.261       .  A
O176        C183   1.283       .  A
O177        C184   1.276       .  A
O178        C184   1.274       .  A
C179        C343   1.452       .  S
C181        C250   1.457       .  S
C184        C274   1.450       .  S
Zn185       O189   1.934       .  S
Zn185       O190   1.991       .  S
Zn185       O194   1.988       .  S
Zn185       O201   1.949       .  S
Zn186       O189   1.947       .  S
Zn186       O191   1.974       .  S
Zn186       O193   2.022       .  S
Zn186       O197   1.954       .  S
Zn187       O189   1.975       .  S
Zn187       O192   2.109       .  S
Zn187       O195   2.070       .  S
Zn187       O198   2.088       .  S
Zn188       O189   1.970       .  S
Zn188       O196   1.984       .  S
Zn188       O199   2.025       .  S
Zn188       O200   2.031       .  S
O190        C202   1.270       .  A
O191        C203   1.268       .  A
O192        C204   1.286       .  A
O193        C202   1.269       .  A
O194        C204   1.267       .  A
O195        C203   1.278       .  A
O196        C205   1.270       .  A
O197        C206   1.267       .  A
O198        C205   1.285       .  A
O199        C206   1.270       .  A
O200        C207   1.275       .  A
O201        C207   1.266       .  A
C202        C368   1.466       .  S
C204       C1769   1.487   1_455  S
C205        C227   1.468       .  S
C206        C276   1.452       .  S
C207        C344   1.454       .  S
Zn208       O212   1.987       .  S
Zn208       O217   2.018       .  S
Zn208       O224   2.003   1_554  S
Zn208       O581   2.118   1_554  S
Zn209       O212   1.829       .  S
Zn209       O214   1.894       .  S
Zn209       O584   1.896   1_554  S
Zn209       O588   1.918   1_554  S
Zn210       O212   2.017       .  S
Zn210       O215   2.064       .  S
Zn210       O218   2.197       .  S
Zn210       O221   2.041       .  S
Zn211       O212   1.987       .  S
Zn211       O219   1.974       .  S
Zn211       O590   2.100   1_554  S
Zn211       O591   2.001   1_554  S
O213       Zn576   2.118       .  S
O213        C225   1.277       .  A
O214        C226   1.260       .  A
O215        C227   1.283       .  A
O216       Zn577   1.896       .  S
O216        C225   1.259       .  A
O217        C227   1.276       .  A
O218        C226   1.283       .  A
O219        C228   1.274       .  A
O220       Zn577   1.918       .  S
O220        C229   1.261       .  A
O221        C228   1.279       .  A
O222       Zn579   2.100       .  S
O222        C229   1.270       .  A
O223       Zn579   2.001       .  S
O223        C230   1.273       .  A
O224        C598   1.272       .  A
C225        C275   1.476       .  S
C226        C318   1.505       .  S
C230        O592   1.272       .  A
Zn231       O235   1.949       .  S
Zn231       O236   2.026       .  S
Zn231       O240   1.970       .  S
Zn231       O247   1.949       .  S
Zn232       O235   1.933       .  S
Zn232       O237   1.996       .  S
Zn232       O239   1.996       .  S
Zn232       O243   1.961       .  S
Zn233       O235   1.972       .  S
Zn233       O238   2.061       .  S
Zn233       O241   2.105       .  S
Zn233       O244   2.086       .  S
Zn234       O235   1.971       .  S
Zn234       O242   1.984       .  S
Zn234       O245   2.031       .  S
Zn234       O246   2.023       .  S
O236        C248   1.269       .  A
O237        C249   1.268       .  A
O238        C250   1.277       .  A
O239        C248   1.272       .  A
O240        C250   1.267       .  A
O241        C249   1.286       .  A
O242        C251   1.270       .  A
O243        C252   1.268       .  A
O244        C251   1.285       .  A
O245        C252   1.275       .  A
O246        C253   1.270       .  A
O247        C253   1.267       .  A
C251        C273   1.468       .  S
C253        C317   1.450       .  S
Zn254       O258   2.015       .  S
Zn254       O259   2.195       .  S
Zn254       O263   2.063       .  S
Zn254       O270   2.041       .  S
Zn255       O258   1.829       .  S
Zn255       O260   1.902       .  S
Zn255       O262   1.898       .  S
Zn255       O266   1.921       .  S
Zn256       O258   1.987       .  S
Zn256       O261   2.019       .  S
Zn256       O264   2.121       .  S
Zn256       O267   2.005       .  S
Zn257       O258   1.989       .  S
Zn257       O265   1.996       .  S
Zn257       O268   2.093       .  S
Zn257       O269   1.967       .  S
O259        C271   1.282       .  A
O260        C272   1.260       .  A
O261        C273   1.277       .  A
O262        C271   1.261       .  A
O263        C273   1.283       .  A
O264        C272   1.277       .  A
O265        C274   1.272       .  A
O266        C275   1.262       .  A
O267        C274   1.273       .  A
O268        C275   1.269       .  A
O269        C276   1.272       .  A
O270        C276   1.279       .  A
C272        C319   1.478       .  S
Zn277       O281   1.967       .  S
Zn277       O282   2.037       .  S
Zn277       O286   2.027       .  S
Zn277       O293   1.972       .  S
Zn278       O281   1.945       .  S
Zn278       O283   2.019       .  S
Zn278       O285   1.947       .  S
Zn278       O289   1.980       .  S
Zn279       O281   1.928       .  S
Zn279       O284   1.951       .  S
Zn279       O287   1.991       .  S
Zn279       O290   2.000       .  S
Zn280       O281   1.964       .  S
Zn280       O288   2.094       .  S
Zn280       O291   2.067       .  S
Zn280       O292   2.116       .  S
O282        C294   1.273       .  A
O283        C295   1.266       .  A
O284        C296   1.268       .  A
O285        C294   1.267       .  A
O286        C296   1.274       .  A
O287        C295   1.269       .  A
O288        C297   1.286       .  A
O289        C298   1.269       .  A
O290        C297   1.268       .  A
O291        C298   1.280       .  A
O292        C299   1.288       .  A
O293        C299   1.267       .  A
C297       C1676   1.487       .  S
C298        C367   1.473       .  S
C299        C321   1.474       .  S
Zn300       O304   1.994       .  S
Zn300       O305   1.955       .  S
Zn300       O677   2.102   1_554  S
Zn300       O684   2.006   1_554  S
Zn301       O304   2.016       .  S
Zn301       O306   2.200       .  S
Zn301       O308   2.045       .  S
Zn301       O312   2.077       .  S
Zn302       O304   1.828       .  S
Zn302       O310   1.893       .  S
Zn302       O675   1.919   1_554  S
Zn302       O681   1.908   1_554  S
Zn303       O304   1.973       .  S
Zn303       O314   2.029       .  S
Zn303       O315   1.984   1_554  S
Zn303       O679   2.124   1_554  S
O305        C317   1.271       .  A
O306        C318   1.284       .  A
O307       Zn670   1.919       .  S
O307        C319   1.262       .  A
O308        C317   1.279       .  A
O309       Zn668   2.102       .  S
O309        C319   1.271       .  A
O310        C318   1.260       .  A
O311       Zn671   2.124       .  S
O311        C320   1.277       .  A
O312        C321   1.284       .  A
O313       Zn670   1.908       .  S
O313        C320   1.261       .  A
O314        C321   1.278       .  A
O315        C690   1.273       .  A
O316       Zn668   2.006       .  S
O316        C322   1.271       .  A
C322        O683   1.273       .  A
C322        C364   1.454       .  S
Zn323       O327   1.862       .  S
Zn323       O332   1.941       .  S
Zn323       O339   1.924       .  S
Zn323      O1800   1.901   1_455  S
Zn324       O327   1.978       .  S
Zn324       O335   1.987       .  S
Zn324      O1801   2.015   1_455  S
Zn324      O1803   2.090   1_455  S
Zn325       O327   1.975       .  S
Zn325       O330   2.137       .  S
Zn325       O333   2.088       .  S
Zn325       O336   2.034       .  S
Zn326       O327   1.984       .  S
Zn326       O334   1.986       .  S
Zn326       O337   2.003       .  S
Zn326       O338   2.089       .  S
O328      Zn1795   1.901       .  S
O328        C340   1.263       .  A
O329      Zn1796   2.015       .  S
O329        C341   1.275       .  A
O330        C342   1.283       .  A
O331      Zn1796   2.090       .  S
O331        C340   1.273       .  A
O332        C342   1.261       .  A
O333       C1813   1.285       .  A
O334        C343   1.273       .  A
O335        C344   1.273       .  A
O336        C343   1.278       .  A
O337        C344   1.271       .  A
O338        C345   1.273       .  A
O339        C345   1.258       .  A
C341       O1805   1.285       .  A
C341        C733   1.476   1_554  S
C342       C1606   1.477   1_455  S
Zn346       O350   1.978       .  S
Zn346      O1823   2.094       .  S
Zn346      O1827   2.093       .  S
Zn346      O1834   2.058       .  S
Zn347       O350   1.927       .  S
Zn347       O352   1.942       .  S
Zn347       O354   1.986       .  S
Zn347       O358   2.017       .  S
Zn348       O350   1.967       .  S
Zn348       O353   2.006       .  S
Zn348       O356   2.040       .  S
Zn348       O359   2.033       .  S
Zn349       O350   1.946       .  S
Zn349       O357   1.962       .  S
Zn349       O360   2.021       .  S
Zn349       O361   1.961       .  S
O351      Zn1818   2.094   1_455  S
O351       C1835   1.282   1_455  A
O352        C364   1.267       .  A
O353        C365   1.273       .  A
O354        C363   1.268       .  A
O355      Zn1818   2.093   1_455  S
O355       C1837   1.285   1_455  A
O356        C364   1.277       .  A
O357        C366   1.268       .  A
O358        C367   1.272       .  A
O359        C366   1.272       .  A
O360        C367   1.268       .  A
O361       C1840   1.268       .  A
O362      Zn1818   2.058   1_455  S
O362        C368   1.278       .  A
C363       O1823   1.282       .  A
C363       C1586   1.472       .  S
C365       O1827   1.285       .  A
C365        C709   1.476       .  S
C368       O1833   1.268   1_455  A
Zn369       O373   1.991       .  S
Zn369       O374   1.965       .  S
Zn369       O378   2.009       .  S
Zn369       O385   2.111       .  S
Zn370       O373   2.017       .  S
Zn370       O375   2.079       .  S
Zn370       O377   2.048       .  S
Zn370       O381   2.202       .  S
Zn371       O373   1.975       .  S
Zn371      O1112   1.978   1_545  S
Zn371       O379   2.025       .  S
Zn371       O382   2.116       .  S
Zn372       O373   1.828       .  S
Zn372       O380   1.904       .  S
Zn372       O383   1.889       .  S
Zn372       O384   1.917       .  S
O374        C386   1.273       .  A
O375        C387   1.284       .  A
O376      Zn1107   1.978       .  S
O376        C388   1.272       .  A
O377        C386   1.280       .  A
O378       C1124   1.272   1_545  A
O379        C387   1.277       .  A
O380        C389   1.260       .  A
O381        C390   1.284       .  A
O382        C389   1.276       .  A
O383        C390   1.260       .  A
O384        C391   1.261       .  A
O385        C391   1.272       .  A
C386        C662   1.453       .  S
C387       C1146   1.474   1_545  S
C388       O1114   1.272       .  A
C388        C433   1.453       .  S
C389        C597   1.478       .  S
C390        C639   1.505       .  S
C391        C688   1.481       .  S
Zn392       O396   1.943       .  S
Zn392       O397   1.979       .  S
Zn392       O401   1.947       .  S
Zn392       O408   2.013       .  S
Zn393       O396   1.968       .  S
Zn393       O398   2.116       .  S
Zn393       O400   2.071       .  S
Zn393       O404   2.097       .  S
Zn394       O396   1.969       .  S
Zn394      O1135   2.036       .  S
Zn394       O402   1.974       .  S
Zn394       O405   2.032       .  S
Zn395       O396   1.928       .  S
Zn395       O403   1.944       .  S
Zn395       O406   2.002       .  S
Zn395       O407   1.987       .  S
O397        C409   1.270       .  A
O398        C410   1.289       .  A
O399      Zn1130   2.036   1_545  S
O399        C411   1.273       .  A
O400        C409   1.280       .  A
O401       C1147   1.266       .  A
O402        C410   1.268       .  A
O403        C412   1.267       .  A
O404        C413   1.286       .  A
O405        C412   1.274       .  A
O406        C413   1.269       .  A
O407        C414   1.268       .  A
O408        C414   1.266       .  A
C409        C432   1.474       .  S
C410       C1123   1.474       .  S
C411       O1137   1.266   1_545  A
C411        C596   1.453       .  S
C412        C527   1.445       .  S
C413        C617   1.488       .  S
C414        C548   1.450       .  S
Zn415       O420   2.029       .  S
Zn415       O424   1.953       .  S
Zn415       O431   1.949       .  S
Zn416       O419   1.921       .  S
Zn416       O421   1.951       .  S
Zn416       O427   1.984       .  S
Zn417       O419   1.967       .  S
Zn417       O422   2.024       .  S
Zn417       O425   2.026       .  S
Zn417       O428   2.023       .  S
Zn418       O419   1.979       .  S
Zn418       O426   2.101       .  S
Zn418       O429   2.093       .  S
Zn418       O430   2.074   1_556  S
O420        C432   1.270       .  A
O421        C433   1.268       .  A
O423        C432   1.272       .  A
O424        C434   1.267       .  A
O425        C433   1.274       .  A
O426        C435   1.287       .  A
O427        C436   1.268       .  A
O428        C435   1.275       .  A
O429        C436   1.282       .  A
O431        C437   1.266       .  A
C434        C501   1.446       .  S
C435        C456   1.482       .  S
C436        C550   1.470       .  S
C437        C616   1.469       .  S
Zn438       O442   1.862       .  S
Zn438       O443   1.916       .  S
Zn438       O447   1.926       .  S
Zn438       O454   1.869       .  S
Zn439       O442   1.987       .  S
Zn439       O444   2.088       .  S
Zn439       O446   2.154       .  S
Zn439       O450   2.044       .  S
Zn440       O442   1.961       .  S
Zn440       O445   2.087       .  S
Zn440       O448   2.035       .  S
Zn440       O451   1.991       .  S
Zn441       O442   2.003       .  S
Zn441       O449   2.010       .  S
Zn441       O452   1.973       .  S
Zn441       O453   2.101       .  S
O443        C455   1.258       .  A
O444        C456   1.284       .  A
O445        C457   1.277       .  A
O446        C455   1.286       .  A
O447        C457   1.259       .  A
O448        C456   1.277       .  A
O449        C458   1.273       .  A
O450        C459   1.279       .  A
O451        C458   1.273       .  A
O452        C459   1.272       .  A
O453        C460   1.270       .  A
O454        C460   1.255       .  A
C455       C1996   1.476       .  S
C457        C505   1.461       .  S
C458        C620   1.457       .  S
C459        C734   1.456       .  S
C460        C708   1.468       .  S
Zn461       O465   1.959       .  S
Zn461      O1938   2.023   1_455  S
Zn461      O1206   1.992   1_545  S
Zn461      O1949   2.071   1_455  S
Zn462       O465   1.978       .  S
Zn462       O467   2.022       .  S
Zn462       O473   2.129       .  S
Zn463       O465   1.984       .  S
Zn463       O468   2.007       .  S
Zn463       O471   1.993       .  S
Zn463       O474   2.095       .  S
Zn464       O465   1.879       .  S
Zn464       O472   1.914       .  S
Zn464       O475   1.931       .  S
Zn464      O1948   1.928   1_455  S
O466      Zn1933   2.023       .  S
O466        C478   1.275       .  A
O467        C479   1.277       .  A
O468       C1216   1.272   1_545  A
O469       C1582   1.285       .  A
O470      Zn1197   1.992       .  S
O470        C480   1.273       .  A
O471        C479   1.273       .  A
O472        C481   1.257       .  A
O473        C482   1.283       .  A
O474        C481   1.274       .  A
O475        C482   1.261       .  A
O476      Zn1936   1.928       .  S
O476        C483   1.261       .  A
O477      Zn1933   2.071       .  S
O477        C483   1.275       .  A
C478       O1573   1.285       .  A
C478        C871   1.483   1_546  S
C479        C598   1.451       .  S
C480       O1204   1.272       .  A
C480        C529   1.456       .  S
C481        C571   1.460       .  S
C482       C2203   1.472   1_455  S
C483        C663   1.454       .  S
Zn484       O488   1.957       .  S
Zn484       O489   2.017       .  S
Zn484      O1229   2.011       .  S
Zn484      O1236   2.039       .  S
Zn485       O488   1.917       .  S
Zn485       O490   2.013       .  S
Zn485       O492   1.966       .  S
Zn485       O496   2.018       .  S
Zn486       O488   1.968       .  S
Zn486      O1963   2.116       .  S
Zn486      O1966   2.093       .  S
Zn486      O1969   2.081       .  S
Zn487       O488   1.932       .  S
Zn487       O495   1.967       .  S
Zn487       O498   2.023       .  S
Zn487       O499   1.934       .  S
O489        C501   1.273       .  A
O490        C502   1.272       .  A
O491      Zn1958   2.116   1_455  S
O491       C1975   1.289   1_455  A
O492        C501   1.270       .  A
O493      Zn1220   2.011       .  S
O493       C1239   1.274       .  A
O494      Zn1958   2.093   1_455  S
O494       C1974   1.284   1_455  A
O495       C1976   1.268       .  A
O496        C505   1.273       .  A
O497      Zn1958   2.081   1_455  S
O497        C504   1.282       .  A
O498        C505   1.266       .  A
O499       C1242   1.265       .  A
O500      Zn1220   2.039   1_545  S
O500        C506   1.273       .  A
C502       O1966   1.284       .  A
C502       C2182   1.477       .  S
C503       O1963   1.289       .  A
C503       O1229   1.274       .  A
C503        C846   1.483       .  S
C504       O1967   1.268   1_455  A
C504        C526   1.474       .  S
C506       O1235   1.265   1_545  A
C506        C664   1.446       .  S
Zn507       O511   1.933       .  S
Zn507       O512   1.994       .  S
Zn507       O516   2.024       .  S
Zn507       O523   1.968       .  S
Zn508       O511   1.987       .  S
Zn508       O513   2.082       .  S
Zn508       O515   2.110       .  S
Zn508       O519   2.084       .  S
Zn509       O511   1.942       .  S
Zn509       O514   2.022       .  S
Zn509       O517   1.958       .  S
Zn509       O520   1.941       .  S
Zn510       O511   1.972       .  S
Zn510       O518   2.029       .  S
Zn510       O521   2.018       .  S
Zn510       O522   2.023       .  S
O512        C524   1.270       .  A
O513        C525   1.278       .  A
O514        C526   1.269       .  A
O515        C524   1.285       .  A
O516        C526   1.275       .  A
O517        C525   1.266       .  A
O518        C527   1.270       .  A
O519        C528   1.285       .  A
O520        C527   1.265       .  A
O521        C528   1.275       .  A
O522        C529   1.274       .  A
O523        C529   1.268       .  A
C524       C1927   1.476   1_455  S
C525        C713   1.461       .  S
C528        C551   1.475       .  S
Zn530       O534   1.978       .  S
Zn530       O546   1.995       .  S
Zn531       O534   1.970       .  S
Zn531       O542   2.011       .  S
Zn532       O537   1.917       .  S
Zn532       O540   1.919       .  S
Zn533       O534   1.974       .  S
Zn533       O541   2.121       .  S
Zn533       O544   2.084       .  S
Zn533       O545   2.018       .  S
O535        C547   1.272       .  A
O536        C548   1.276       .  A
O537        C549   1.257       .  A
O538        C547   1.272       .  A
O539        C549   1.272       .  A
O540        C548   1.261       .  A
O541        C550   1.281       .  A
O542        C551   1.274       .  A
O543        C550   1.261       .  A
O544        C551   1.283       .  A
O545        C552   1.276       .  A
O546        C552   1.274       .  A
C547        C711   1.452       .  S
C549        C618   1.457       .  S
C552        C642   1.450       .  S
Zn553       O557   1.934       .  S
Zn553       O558   1.991       .  S
Zn553       O562   1.988       .  S
Zn553       O569   1.949       .  S
Zn554       O557   1.947       .  S
Zn554       O559   1.974       .  S
Zn554       O561   2.022       .  S
Zn554       O565   1.954       .  S
Zn555       O557   1.975       .  S
Zn555       O560   2.109       .  S
Zn555       O563   2.070       .  S
Zn555       O566   2.088       .  S
Zn556       O557   1.970       .  S
Zn556       O564   1.984       .  S
Zn556       O567   2.025       .  S
Zn556       O568   2.031       .  S
O558        C570   1.270       .  A
O559        C571   1.268       .  A
O560        C572   1.286       .  A
O561        C570   1.269       .  A
O562        C572   1.267       .  A
O563        C571   1.278       .  A
O564        C573   1.270       .  A
O565        C574   1.267       .  A
O566        C573   1.285       .  A
O567        C574   1.270       .  A
O568        C575   1.275       .  A
O569        C575   1.266       .  A
C570        C736   1.466       .  S
C572       C2137   1.487   1_455  S
C573        C595   1.468       .  S
C574        C644   1.452       .  S
C575        C712   1.454       .  S
Zn576       O580   1.987       .  S
Zn576       O585   2.018       .  S
Zn576       O592   2.003       .  S
Zn577       O580   1.829       .  S
Zn577       O582   1.894       .  S
Zn578       O580   2.017       .  S
Zn578       O583   2.064       .  S
Zn578       O586   2.197       .  S
Zn578       O589   2.041       .  S
Zn579       O580   1.987       .  S
Zn579       O587   1.974       .  S
O581        C593   1.277       .  A
O582        C594   1.260       .  A
O583        C595   1.283       .  A
O584        C593   1.259       .  A
O585        C595   1.276       .  A
O586        C594   1.283       .  A
O587        C596   1.274       .  A
O588        C597   1.261       .  A
O589        C596   1.279       .  A
O590        C597   1.270       .  A
O591        C598   1.273       .  A
C593        C643   1.476       .  S
C594        C686   1.505       .  S
Zn599       O603   1.949       .  S
Zn599       O604   2.026       .  S
Zn599       O608   1.970       .  S
Zn599       O615   1.949       .  S
Zn600       O603   1.933       .  S
Zn600       O605   1.996       .  S
Zn600       O607   1.996       .  S
Zn600       O611   1.961       .  S
Zn601       O603   1.972       .  S
Zn601       O606   2.061       .  S
Zn601       O609   2.105       .  S
Zn601       O612   2.086       .  S
Zn602       O603   1.971       .  S
Zn602       O610   1.984       .  S
Zn602       O613   2.031       .  S
Zn602       O614   2.023       .  S
O604        C616   1.269       .  A
O605        C617   1.268       .  A
O606        C618   1.277       .  A
O607        C616   1.272       .  A
O608        C618   1.267       .  A
O609        C617   1.286       .  A
O610        C619   1.270       .  A
O611        C620   1.268       .  A
O612        C619   1.285       .  A
O613        C620   1.275       .  A
O614        C621   1.270       .  A
O615        C621   1.267       .  A
C619        C641   1.468       .  S
C621        C685   1.450       .  S
Zn622       O626   2.015       .  S
Zn622       O627   2.195       .  S
Zn622       O631   2.063       .  S
Zn622       O638   2.041       .  S
Zn623       O626   1.829       .  S
Zn623       O628   1.902       .  S
Zn623       O630   1.898       .  S
Zn623       O634   1.921       .  S
Zn624       O626   1.987       .  S
Zn624       O629   2.019       .  S
Zn624       O632   2.121       .  S
Zn624       O635   2.005       .  S
Zn625       O626   1.989       .  S
Zn625       O633   1.996       .  S
Zn625       O636   2.093       .  S
Zn625       O637   1.967       .  S
O627        C639   1.282       .  A
O628        C640   1.260       .  A
O629        C641   1.277       .  A
O630        C639   1.261       .  A
O631        C641   1.283       .  A
O632        C640   1.277       .  A
O633        C642   1.272       .  A
O634        C643   1.262       .  A
O635        C642   1.273       .  A
O636        C643   1.269       .  A
O637        C644   1.272       .  A
O638        C644   1.279       .  A
C640        C687   1.478       .  S
Zn645       O649   1.967       .  S
Zn645       O650   2.037       .  S
Zn645       O654   2.027       .  S
Zn645       O661   1.972       .  S
Zn646       O649   1.945       .  S
Zn646       O651   2.019       .  S
Zn646       O653   1.947       .  S
Zn646       O657   1.980       .  S
Zn647       O649   1.928       .  S
Zn647       O652   1.951       .  S
Zn647       O655   1.991       .  S
Zn647       O658   2.000       .  S
Zn648       O649   1.964       .  S
Zn648       O656   2.094       .  S
Zn648       O659   2.067       .  S
Zn648       O660   2.116       .  S
O650        C662   1.273       .  A
O651        C663   1.266       .  A
O652        C664   1.268       .  A
O653        C662   1.267       .  A
O654        C664   1.274       .  A
O655        C663   1.269       .  A
O656        C665   1.286       .  A
O657        C666   1.269       .  A
O658        C665   1.268       .  A
O659        C666   1.280       .  A
O660        C667   1.288       .  A
O661        C667   1.267       .  A
C665       C2044   1.487       .  S
C666        C735   1.473       .  S
C667        C689   1.474       .  S
Zn668       O672   1.994       .  S
Zn668       O673   1.955       .  S
Zn669       O672   2.016       .  S
Zn669       O674   2.200       .  S
Zn669       O676   2.045       .  S
Zn669       O680   2.077       .  S
Zn670       O672   1.828       .  S
Zn670       O678   1.893       .  S
Zn671       O672   1.973       .  S
Zn671       O682   2.029       .  S
Zn671       O683   1.984       .  S
O673        C685   1.271       .  A
O674        C686   1.284       .  A
O675        C687   1.262       .  A
O676        C685   1.279       .  A
O677        C687   1.271       .  A
O678        C686   1.260       .  A
O679        C688   1.277       .  A
O680        C689   1.284       .  A
O681        C688   1.261       .  A
O682        C689   1.278       .  A
O684        C690   1.271       .  A
C690        C732   1.454       .  S
Zn691       O695   1.862       .  S
Zn691      O2168   1.901   1_455  S
Zn691       O700   1.941       .  S
Zn691       O707   1.924       .  S
Zn692       O695   1.978       .  S
Zn692      O2169   2.015   1_455  S
Zn692      O2171   2.090   1_455  S
Zn692       O703   1.987       .  S
Zn693       O695   1.975       .  S
Zn693       O698   2.137       .  S
Zn693       O701   2.088       .  S
Zn693       O704   2.034       .  S
Zn694       O695   1.984       .  S
Zn694       O702   1.986       .  S
Zn694       O705   2.003       .  S
Zn694       O706   2.089       .  S
O696      Zn2163   1.901       .  S
O696        C708   1.263       .  A
O697      Zn2164   2.015       .  S
O697        C709   1.275       .  A
O698        C710   1.283       .  A
O699      Zn2164   2.090       .  S
O699        C708   1.273       .  A
O700        C710   1.261       .  A
O701       C2181   1.285       .  A
O702        C711   1.273       .  A
O703        C712   1.273       .  A
O704        C711   1.278       .  A
O705        C712   1.271       .  A
O706        C713   1.273       .  A
O707        C713   1.258       .  A
C709       O2173   1.285       .  A
C710       C1974   1.477   1_455  S
Zn714       O718   1.978       .  S
Zn714      O2191   2.094       .  S
Zn714      O2195   2.093       .  S
Zn714      O2202   2.058       .  S
Zn715       O718   1.927       .  S
Zn715       O720   1.942       .  S
Zn715       O722   1.986       .  S
Zn715       O726   2.017       .  S
Zn716       O718   1.967       .  S
Zn716       O721   2.006       .  S
Zn716       O724   2.040       .  S
Zn716       O727   2.033       .  S
Zn717       O718   1.946       .  S
Zn717       O725   1.962       .  S
Zn717       O728   2.021       .  S
Zn717       O729   1.961       .  S
O719      Zn2186   2.094   1_455  S
O719       C2203   1.282   1_455  A
O720        C732   1.267       .  A
O721        C733   1.273       .  A
O722        C731   1.268       .  A
O723      Zn2186   2.093   1_455  S
O723       C2205   1.285   1_455  A
O724        C732   1.277       .  A
O725        C734   1.268       .  A
O726        C735   1.272       .  A
O727        C734   1.272       .  A
O728        C735   1.268       .  A
O729       C2208   1.268       .  A
O730      Zn2186   2.058   1_455  S
O730        C736   1.278       .  A
C731       O2191   1.282       .  A
C731       C1954   1.472       .  S
C733       O2195   1.285       .  A
C736       O2201   1.268   1_455  A
Zn737       O741   1.991       .  S
Zn737       O742   1.965       .  S
Zn737       O746   2.009       .  S
Zn737       O753   2.111       .  S
Zn738       O741   2.017       .  S
Zn738       O743   2.079       .  S
Zn738       O745   2.048       .  S
Zn738       O749   2.202       .  S
Zn739       O741   1.975       .  S
Zn739       O747   2.025       .  S
Zn739       O750   2.116       .  S
Zn740       O741   1.828       .  S
Zn740       O748   1.904       .  S
Zn740       O751   1.889       .  S
Zn740       O752   1.917       .  S
O742        C754   1.273       .  A
O743        C755   1.284       .  A
O744        C756   1.272       .  A
O745        C754   1.280       .  A
O747        C755   1.277       .  A
O748        C757   1.260       .  A
O749        C758   1.284       .  A
O750        C757   1.276       .  A
O751        C758   1.260       .  A
O752        C759   1.261       .  A
O753        C759   1.272       .  A
C754       C1030   1.453       .  S
C756        C801   1.453       .  S
C757        C965   1.478       .  S
C758       C1007   1.505       .  S
C759       C1056   1.481       .  S
Zn760       O764   1.943       .  S
Zn760       O765   1.979       .  S
Zn760       O769   1.947       .  S
Zn760       O776   2.013       .  S
Zn761       O764   1.968       .  S
Zn761       O766   2.116       .  S
Zn761       O768   2.071       .  S
Zn761       O772   2.097       .  S
Zn762       O764   1.969       .  S
Zn762       O770   1.974       .  S
Zn762       O773   2.032       .  S
Zn763       O764   1.928       .  S
Zn763       O771   1.944       .  S
Zn763       O774   2.002       .  S
Zn763       O775   1.987       .  S
O765        C777   1.270       .  A
O766        C778   1.289       .  A
O767        C779   1.273       .  A
O768        C777   1.280       .  A
O770        C778   1.268       .  A
O771        C780   1.267       .  A
O772        C781   1.286       .  A
O773        C780   1.274       .  A
O774        C781   1.269       .  A
O775        C782   1.268       .  A
O776        C782   1.266       .  A
C777        C800   1.474       .  S
C779        C964   1.453       .  S
C780        C895   1.445       .  S
C781        C985   1.488       .  S
C782        C916   1.450       .  S
Zn783      O1155   1.940   1_554  S
Zn783       O788   2.029       .  S
Zn783       O792   1.953       .  S
Zn783       O799   1.949       .  S
Zn784       O787   1.921       .  S
Zn784       O789   1.951       .  S
Zn784      O1159   2.013       .  S
Zn784       O795   1.984       .  S
Zn785       O787   1.967       .  S
Zn785       O790   2.024       .  S
Zn785       O793   2.026       .  S
Zn785       O796   2.023       .  S
Zn786       O787   1.979       .  S
Zn786       O794   2.101       .  S
Zn786       O797   2.093       .  S
Zn786       O798   2.074       .  S
O787      Zn1151   1.940       .  S
O788        C800   1.270       .  A
O789        C801   1.268       .  A
O790       C1170   1.271       .  A
O791      Zn1152   2.013   1_554  S
O791        C800   1.272       .  A
O792        C802   1.267       .  A
O793        C801   1.274       .  A
O794        C803   1.287       .  A
O795        C804   1.268       .  A
O796        C803   1.275       .  A
O797        C804   1.282       .  A
O798       C1173   1.279       .  A
O799        C805   1.266       .  A
C802       O1158   1.271   1_554  A
C802        C869   1.446       .  S
C803        C824   1.482       .  S
C804        C918   1.470       .  S
C805       O1166   1.279       .  A
C805        C984   1.469       .  S
Zn806       O810   1.862       .  S
Zn806       O811   1.916       .  S
Zn806       O815   1.926       .  S
Zn806       O822   1.869       .  S
Zn807       O810   1.987       .  S
Zn807       O812   2.088       .  S
Zn807       O814   2.154       .  S
Zn807       O818   2.044       .  S
Zn808       O810   1.961       .  S
Zn808       O813   2.087       .  S
Zn808       O816   2.035       .  S
Zn808       O819   1.991       .  S
Zn809       O810   2.003       .  S
Zn809       O817   2.010       .  S
Zn809       O820   1.973       .  S
Zn809       O821   2.101       .  S
O811        C823   1.258       .  A
O812        C824   1.284       .  A
O813        C825   1.277       .  A
O814        C823   1.286       .  A
O815        C825   1.259       .  A
O816        C824   1.277       .  A
O817        C826   1.273       .  A
O818        C827   1.279       .  A
O819        C826   1.273       .  A
O820        C827   1.272       .  A
O821        C828   1.270       .  A
O822        C828   1.255       .  A
C823       C2364   1.476       .  S
C825        C873   1.461       .  S
C826        C988   1.457       .  S
C827       C1102   1.456       .  S
C828       C1076   1.468       .  S
Zn829       O833   1.959       .  S
Zn829      O2306   2.023   1_455  S
Zn829      O2317   2.071   1_455  S
Zn830       O833   1.978       .  S
Zn830       O835   2.022       .  S
Zn830      O1205   2.099       .  S
Zn830       O841   2.129       .  S
Zn831       O833   1.984       .  S
Zn831       O836   2.007       .  S
Zn831       O839   1.993       .  S
Zn831       O842   2.095       .  S
Zn832       O833   1.879       .  S
Zn832       O840   1.914       .  S
Zn832       O843   1.931       .  S
Zn832      O2316   1.928   1_455  S
O834      Zn2301   2.023       .  S
O834        C846   1.275       .  A
O835        C847   1.277       .  A
O837      Zn1198   2.099       .  S
O837       C2686   1.285       .  A
O838        C848   1.273       .  A
O839        C847   1.273       .  A
O840        C849   1.257       .  A
O841        C850   1.283       .  A
O842        C849   1.274       .  A
O843        C850   1.261       .  A
O844      Zn2304   1.928       .  S
O844        C851   1.261       .  A
O845      Zn2301   2.071       .  S
O845        C851   1.275       .  A
C846       O2677   1.285       .  A
C847        C966   1.451       .  S
C848        C897   1.456       .  S
C849        C939   1.460       .  S
C850       C2571   1.472   1_455  S
C851       C1031   1.454       .  S
Zn852       O856   1.957       .  S
Zn852       O857   2.017       .  S
Zn853       O856   1.917       .  S
Zn853       O858   2.013       .  S
Zn853       O860   1.966       .  S
Zn853       O864   2.018       .  S
Zn854       O856   1.968       .  S
Zn854      O2331   2.116       .  S
Zn854      O2334   2.093       .  S
Zn854      O2337   2.081       .  S
Zn855       O856   1.932       .  S
Zn855       O863   1.967       .  S
Zn855       O866   2.023       .  S
Zn855       O867   1.934       .  S
O857        C869   1.273       .  A
O858        C870   1.272       .  A
O859      Zn2326   2.116   1_455  S
O859       C2343   1.289   1_455  A
O860        C869   1.270       .  A
O862      Zn2326   2.093   1_455  S
O862       C2342   1.284   1_455  A
O863       C2344   1.268       .  A
O864        C873   1.273       .  A
O865      Zn2326   2.081   1_455  S
O865        C872   1.282       .  A
O866        C873   1.266       .  A
O868        C874   1.273       .  A
C870       O2334   1.284       .  A
C870       C2550   1.477       .  S
C871       O2331   1.289       .  A
C872       O2335   1.268   1_455  A
C872        C894   1.474       .  S
C874       C1032   1.446       .  S
Zn875       O879   1.933       .  S
Zn875       O880   1.994       .  S
Zn875       O884   2.024       .  S
Zn875       O891   1.968       .  S
Zn876       O879   1.987       .  S
Zn876       O881   2.082       .  S
Zn876       O883   2.110       .  S
Zn876       O887   2.084       .  S
Zn877       O879   1.942       .  S
Zn877       O882   2.022       .  S
Zn877       O885   1.958       .  S
Zn877       O888   1.941       .  S
Zn878       O879   1.972       .  S
Zn878       O886   2.029       .  S
Zn878       O889   2.018       .  S
Zn878       O890   2.023       .  S
O880        C892   1.270       .  A
O881        C893   1.278       .  A
O882        C894   1.269       .  A
O883        C892   1.285       .  A
O884        C894   1.275       .  A
O885        C893   1.266       .  A
O886        C895   1.270       .  A
O887        C896   1.285       .  A
O888        C895   1.265       .  A
O889        C896   1.275       .  A
O890        C897   1.274       .  A
O891        C897   1.268       .  A
C892       C2295   1.476   1_455  S
C893       C1081   1.461       .  S
C896        C919   1.475       .  S
Zn898       O902   1.978       .  S
Zn898      O1271   1.997       .  S
Zn898      O1275   2.081       .  S
Zn898       O914   1.995       .  S
Zn899       O902   1.970       .  S
Zn899      O1272   2.068       .  S
Zn899      O1274   2.008       .  S
Zn899       O910   2.011       .  S
Zn900      O1270   1.881   1_554  S
Zn900       O905   1.917       .  S
Zn900       O908   1.919       .  S
Zn900      O1279   1.936   1_554  S
Zn901       O902   1.974       .  S
Zn901       O909   2.121       .  S
Zn901       O912   2.083       .  S
Zn901       O913   2.018       .  S
O902      Zn1268   1.881       .  S
O903      Zn1266   1.997   1_554  S
O903        C915   1.272       .  A
O904      Zn1267   2.068   1_554  S
O904        C916   1.276       .  A
O905        C917   1.257       .  A
O906      Zn1267   2.008   1_554  S
O906        C915   1.272       .  A
O907      Zn1266   2.081   1_554  S
O907        C917   1.272       .  A
O908        C916   1.261       .  A
O909        C918   1.281       .  A
O910        C919   1.274       .  A
O911      Zn1268   1.936       .  S
O911        C918   1.261       .  A
O912        C919   1.283       .  A
O913        C920   1.276       .  A
O914        C920   1.274       .  A
C915       C1079   1.452       .  S
C917        C986   1.457       .  S
C920       C1010   1.450       .  S
Zn921       O925   1.934       .  S
Zn921       O926   1.991       .  S
Zn921       O930   1.988       .  S
Zn921       O937   1.949       .  S
Zn922       O925   1.947       .  S
Zn922       O927   1.974       .  S
Zn922       O929   2.022       .  S
Zn922       O933   1.954       .  S
Zn923       O925   1.975       .  S
Zn923       O928   2.109       .  S
Zn923       O931   2.070       .  S
Zn923       O934   2.088       .  S
Zn924       O925   1.970       .  S
Zn924       O932   1.984       .  S
Zn924       O935   2.025       .  S
Zn924       O936   2.031       .  S
O926        C938   1.270       .  A
O927        C939   1.268       .  A
O928        C940   1.286       .  A
O929        C938   1.269       .  A
O930        C940   1.267       .  A
O931        C939   1.278       .  A
O932        C941   1.270       .  A
O933        C942   1.267       .  A
O934        C941   1.285       .  A
O935        C942   1.270       .  A
O936        C943   1.275       .  A
O937        C943   1.266       .  A
C938       C1104   1.466       .  S
C940       C2505   1.487   1_455  S
C941        C963   1.468       .  S
C942       C1012   1.452       .  S
C943       C1080   1.454       .  S
Zn944       O948   1.987       .  S
Zn944      O1317   2.118   1_554  S
Zn944       O953   2.018       .  S
Zn944       O960   2.003   1_554  S
Zn945       O948   1.829       .  S
Zn945       O950   1.894       .  S
Zn945      O1320   1.896   1_554  S
Zn945      O1324   1.918   1_554  S
Zn946       O948   2.017       .  S
Zn946       O951   2.064       .  S
Zn946       O954   2.197       .  S
Zn946       O957   2.041       .  S
Zn947       O948   1.987       .  S
Zn947       O955   1.974       .  S
Zn947      O1326   2.100   1_554  S
Zn947      O1327   2.001   1_554  S
O949      Zn1312   2.118       .  S
O949        C961   1.277       .  A
O950        C962   1.260       .  A
O951        C963   1.283       .  A
O952      Zn1313   1.896       .  S
O952        C961   1.259       .  A
O953        C963   1.276       .  A
O954        C962   1.283       .  A
O955        C964   1.274       .  A
O956      Zn1313   1.918       .  S
O956        C965   1.261       .  A
O957        C964   1.279       .  A
O958      Zn1315   2.100       .  S
O958        C965   1.270       .  A
O959      Zn1315   2.001       .  S
O959        C966   1.273       .  A
O960       C1334   1.272       .  A
C961       C1011   1.476       .  S
C962       C1054   1.505       .  S
C966       O1328   1.272       .  A
Zn967       O971   1.949       .  S
Zn967       O972   2.026       .  S
Zn967       O976   1.970       .  S
Zn967       O983   1.949       .  S
Zn968       O971   1.933       .  S
Zn968       O973   1.996       .  S
Zn968       O975   1.996       .  S
Zn968       O979   1.961       .  S
Zn969       O971   1.972       .  S
Zn969       O974   2.061       .  S
Zn969       O977   2.105       .  S
Zn969       O980   2.086       .  S
Zn970       O971   1.971       .  S
Zn970       O978   1.984       .  S
Zn970       O981   2.031       .  S
Zn970       O982   2.023       .  S
O972        C984   1.269       .  A
O973        C985   1.268       .  A
O974        C986   1.277       .  A
O975        C984   1.272       .  A
O976        C986   1.267       .  A
O977        C985   1.286       .  A
O978        C987   1.270       .  A
O979        C988   1.268       .  A
O980        C987   1.285       .  A
O981        C988   1.275       .  A
O982        C989   1.270       .  A
O983        C989   1.267       .  A
C987       C1009   1.468       .  S
C989       C1053   1.450       .  S
Zn990       O994   2.015       .  S
Zn990       O995   2.195       .  S
Zn990       O999   2.063       .  S
Zn990      O1006   2.041       .  S
Zn991       O994   1.829       .  S
Zn991       O996   1.902       .  S
Zn991       O998   1.898       .  S
Zn991      O1002   1.921       .  S
Zn992       O994   1.987       .  S
Zn992       O997   2.019       .  S
Zn992      O1000   2.121       .  S
Zn992      O1003   2.005       .  S
Zn993       O994   1.989       .  S
Zn993      O1001   1.996       .  S
Zn993      O1004   2.093       .  S
Zn993      O1005   1.967       .  S
O995       C1007   1.282       .  A
O996       C1008   1.260       .  A
O997       C1009   1.277       .  A
O998       C1007   1.261       .  A
O999       C1009   1.283       .  A
O1000      C1008   1.277       .  A
O1001      C1010   1.272       .  A
O1002      C1011   1.262       .  A
O1003      C1010   1.273       .  A
O1004      C1011   1.269       .  A
O1005      C1012   1.272       .  A
O1006      C1012   1.279       .  A
C1008      C1055   1.478       .  S
Zn1013     O1017   1.967       .  S
Zn1013     O1018   2.037       .  S
Zn1013     O1022   2.027       .  S
Zn1013     O1029   1.972       .  S
Zn1014     O1017   1.945       .  S
Zn1014     O1019   2.019       .  S
Zn1014     O1021   1.947       .  S
Zn1014     O1025   1.980       .  S
Zn1015     O1017   1.928       .  S
Zn1015     O1020   1.951       .  S
Zn1015     O1023   1.991       .  S
Zn1015     O1026   2.000       .  S
Zn1016     O1017   1.964       .  S
Zn1016     O1024   2.094       .  S
Zn1016     O1027   2.067       .  S
Zn1016     O1028   2.116       .  S
O1018      C1030   1.273       .  A
O1019      C1031   1.266       .  A
O1020      C1032   1.268       .  A
O1021      C1030   1.267       .  A
O1022      C1032   1.274       .  A
O1023      C1031   1.269       .  A
O1024      C1033   1.286       .  A
O1025      C1034   1.269       .  A
O1026      C1033   1.268       .  A
O1027      C1034   1.280       .  A
O1028      C1035   1.288       .  A
O1029      C1035   1.267       .  A
C1033      C2412   1.487       .  S
C1034      C1103   1.473       .  S
C1035      C1057   1.474       .  S
Zn1036     O1040   1.994       .  S
Zn1036     O1041   1.955       .  S
Zn1036     O1413   2.102   1_554  S
Zn1036     O1420   2.006   1_554  S
Zn1037     O1040   2.016       .  S
Zn1037     O1042   2.200       .  S
Zn1037     O1044   2.045       .  S
Zn1037     O1048   2.077       .  S
Zn1038     O1040   1.828       .  S
Zn1038     O1411   1.919   1_554  S
Zn1038     O1046   1.893       .  S
Zn1038     O1417   1.908   1_554  S
Zn1039     O1040   1.973       .  S
Zn1039     O1415   2.124   1_554  S
Zn1039     O1050   2.029       .  S
Zn1039     O1051   1.984   1_554  S
O1041      C1053   1.271       .  A
O1042      C1054   1.284       .  A
O1043     Zn1406   1.919       .  S
O1043      C1055   1.262       .  A
O1044      C1053   1.279       .  A
O1045     Zn1404   2.102       .  S
O1045      C1055   1.271       .  A
O1046      C1054   1.260       .  A
O1047     Zn1407   2.124       .  S
O1047      C1056   1.277       .  A
O1048      C1057   1.284       .  A
O1049     Zn1406   1.908       .  S
O1049      C1056   1.261       .  A
O1050      C1057   1.278       .  A
O1051      C1426   1.273       .  A
O1052     Zn1404   2.006       .  S
O1052      C1058   1.271       .  A
C1058      O1419   1.273       .  A
C1058      C1100   1.454       .  S
Zn1059     O1063   1.862       .  S
Zn1059     O2536   1.901   1_455  S
Zn1059     O1068   1.941       .  S
Zn1059     O1075   1.924       .  S
Zn1060     O1063   1.978       .  S
Zn1060     O2537   2.015   1_455  S
Zn1060     O2539   2.090   1_455  S
Zn1060     O1071   1.987       .  S
Zn1061     O1063   1.975       .  S
Zn1061     O1066   2.137       .  S
Zn1061     O1069   2.088       .  S
Zn1061     O1072   2.034       .  S
Zn1062     O1063   1.984       .  S
Zn1062     O1070   1.986       .  S
Zn1062     O1073   2.003       .  S
Zn1062     O1074   2.089       .  S
O1064     Zn2531   1.901       .  S
O1064      C1076   1.263       .  A
O1065     Zn2532   2.015       .  S
O1065      C1077   1.275       .  A
O1066      C1078   1.283       .  A
O1067     Zn2532   2.090       .  S
O1067      C1076   1.273       .  A
O1068      C1078   1.261       .  A
O1069      C2549   1.285       .  A
O1070      C1079   1.273       .  A
O1071      C1080   1.273       .  A
O1072      C1079   1.278       .  A
O1073      C1080   1.271       .  A
O1074      C1081   1.273       .  A
O1075      C1081   1.258       .  A
C1077      O2541   1.285       .  A
C1077      C1469   1.476   1_554  S
C1078      C2342   1.477   1_455  S
Zn1082     O1086   1.978       .  S
Zn1082     O2559   2.094       .  S
Zn1082     O2563   2.093       .  S
Zn1082     O2570   2.058       .  S
Zn1083     O1086   1.927       .  S
Zn1083     O1088   1.942       .  S
Zn1083     O1090   1.986       .  S
Zn1083     O1094   2.017       .  S
Zn1084     O1086   1.967       .  S
Zn1084     O1089   2.006       .  S
Zn1084     O1092   2.040       .  S
Zn1084     O1095   2.033       .  S
Zn1085     O1086   1.946       .  S
Zn1085     O1093   1.962       .  S
Zn1085     O1096   2.021       .  S
Zn1085     O1097   1.961       .  S
O1087     Zn2554   2.094   1_455  S
O1087      C2571   1.282   1_455  A
O1088      C1100   1.267       .  A
O1089      C1101   1.273       .  A
O1090      C1099   1.268       .  A
O1091     Zn2554   2.093   1_455  S
O1091      C2573   1.285   1_455  A
O1092      C1100   1.277       .  A
O1093      C1102   1.268       .  A
O1094      C1103   1.272       .  A
O1095      C1102   1.272       .  A
O1096      C1103   1.268       .  A
O1097      C2576   1.268       .  A
O1098     Zn2554   2.058   1_455  S
O1098      C1104   1.278       .  A
C1099      O2559   1.282       .  A
C1099      C2322   1.472       .  S
C1101      O2563   1.285       .  A
C1101      C1445   1.476       .  S
C1104      O2569   1.268   1_455  A
Zn1105     O1109   1.991       .  S
Zn1105     O1110   1.965       .  S
Zn1105     O1114   2.009       .  S
Zn1105     O1121   2.111       .  S
Zn1106     O1109   2.017       .  S
Zn1106     O1111   2.079       .  S
Zn1106     O1113   2.048       .  S
Zn1106     O1117   2.202       .  S
Zn1107     O1109   1.975       .  S
Zn1107     O1115   2.025       .  S
Zn1107     O1118   2.116       .  S
Zn1108     O1109   1.828       .  S
Zn1108     O1116   1.904       .  S
Zn1108     O1119   1.889       .  S
Zn1108     O1120   1.917       .  S
O1110      C1122   1.273       .  A
O1111      C1123   1.284       .  A
O1112      C1124   1.272       .  A
O1113      C1122   1.280       .  A
O1115      C1123   1.277       .  A
O1116      C1125   1.260       .  A
O1117      C1126   1.284       .  A
O1118      C1125   1.276       .  A
O1119      C1126   1.260       .  A
O1120      C1127   1.261       .  A
O1121      C1127   1.272       .  A
C1122      C1398   1.453       .  S
C1124      C1169   1.453       .  S
C1125      C1333   1.478       .  S
C1126      C1375   1.505       .  S
C1127      C1424   1.481       .  S
Zn1128     O1132   1.943       .  S
Zn1128     O1133   1.979       .  S
Zn1128     O1137   1.947       .  S
Zn1128     O1144   2.013       .  S
Zn1129     O1132   1.968       .  S
Zn1129     O1134   2.116       .  S
Zn1129     O1136   2.071       .  S
Zn1129     O1140   2.097       .  S
Zn1130     O1132   1.969       .  S
Zn1130     O1138   1.974       .  S
Zn1130     O1141   2.032       .  S
Zn1131     O1132   1.928       .  S
Zn1131     O1139   1.944       .  S
Zn1131     O1142   2.002       .  S
Zn1131     O1143   1.987       .  S
O1133      C1145   1.270       .  A
O1134      C1146   1.289       .  A
O1135      C1147   1.273       .  A
O1136      C1145   1.280       .  A
O1138      C1146   1.268       .  A
O1139      C1148   1.267       .  A
O1140      C1149   1.286       .  A
O1141      C1148   1.274       .  A
O1142      C1149   1.269       .  A
O1143      C1150   1.268       .  A
O1144      C1150   1.266       .  A
C1145      C1168   1.474       .  S
C1147      C1332   1.453       .  S
C1148      C1263   1.445       .  S
C1149      C1353   1.488       .  S
C1150      C1284   1.450       .  S
Zn1151     O1156   2.029       .  S
Zn1151     O1160   1.953       .  S
Zn1151     O1167   1.949       .  S
Zn1152     O1155   1.921       .  S
Zn1152     O1157   1.951       .  S
Zn1152     O1163   1.984       .  S
Zn1153     O1155   1.967       .  S
Zn1153     O1158   2.024       .  S
Zn1153     O1161   2.026       .  S
Zn1153     O1164   2.023       .  S
Zn1154     O1155   1.979       .  S
Zn1154     O1162   2.101       .  S
Zn1154     O1165   2.093       .  S
Zn1154     O1166   2.074   1_556  S
O1156      C1168   1.270       .  A
O1157      C1169   1.268       .  A
O1159      C1168   1.272       .  A
O1160      C1170   1.267       .  A
O1161      C1169   1.274       .  A
O1162      C1171   1.287       .  A
O1163      C1172   1.268       .  A
O1164      C1171   1.275       .  A
O1165      C1172   1.282       .  A
O1167      C1173   1.266       .  A
C1170      C1237   1.446       .  S
C1171      C1192   1.482       .  S
C1172      C1286   1.470       .  S
C1173      C1352   1.469       .  S
Zn1174     O1178   1.862       .  S
Zn1174     O1179   1.916       .  S
Zn1174     O1183   1.926       .  S
Zn1174     O1190   1.869       .  S
Zn1175     O1178   1.987       .  S
Zn1175     O1180   2.088       .  S
Zn1175     O1182   2.154       .  S
Zn1175     O1186   2.044       .  S
Zn1176     O1178   1.961       .  S
Zn1176     O1181   2.087       .  S
Zn1176     O1184   2.035       .  S
Zn1176     O1187   1.991       .  S
Zn1177     O1178   2.003       .  S
Zn1177     O1185   2.010       .  S
Zn1177     O1188   1.973       .  S
Zn1177     O1189   2.101       .  S
O1179      C1191   1.258       .  A
O1180      C1192   1.284       .  A
O1181      C1193   1.277       .  A
O1182      C1191   1.286       .  A
O1183      C1193   1.259       .  A
O1184      C1192   1.277       .  A
O1185      C1194   1.273       .  A
O1186      C1195   1.279       .  A
O1187      C1194   1.273       .  A
O1188      C1195   1.272       .  A
O1189      C1196   1.270       .  A
O1190      C1196   1.255       .  A
C1191      C2732   1.476       .  S
C1193      C1241   1.461       .  S
C1194      C1356   1.457       .  S
C1195      C1470   1.456       .  S
C1196      C1444   1.468       .  S
Zn1197     O1201   1.959       .  S
Zn1197     O2674   2.023   1_455  S
Zn1197     O2685   2.071   1_455  S
Zn1198     O1201   1.978       .  S
Zn1198     O1203   2.022       .  S
Zn1198     O1209   2.129       .  S
Zn1199     O1201   1.984       .  S
Zn1199     O1204   2.007       .  S
Zn1199     O1207   1.993       .  S
Zn1199     O1210   2.095       .  S
Zn1200     O1201   1.879       .  S
Zn1200     O1208   1.914       .  S
Zn1200     O1211   1.931       .  S
Zn1200     O2684   1.928   1_455  S
O1202     Zn2669   2.023       .  S
O1202      C1214   1.275       .  A
O1203      C1215   1.277       .  A
O1205      C2318   1.285       .  A
O1206      C1216   1.273       .  A
O1207      C1215   1.273       .  A
O1208      C1217   1.257       .  A
O1209      C1218   1.283       .  A
O1210      C1217   1.274       .  A
O1211      C1218   1.261       .  A
O1212     Zn2672   1.928       .  S
O1212      C1219   1.261       .  A
O1213     Zn2669   2.071       .  S
O1213      C1219   1.275       .  A
C1214      O2309   1.285       .  A
C1215      C1334   1.451       .  S
C1216      C1265   1.456       .  S
C1217      C1307   1.460       .  S
C1218      C2939   1.472   1_455  S
C1219      C1399   1.454       .  S
Zn1220     O1224   1.957       .  S
Zn1220     O1225   2.017       .  S
Zn1221     O1224   1.917       .  S
Zn1221     O1226   2.013       .  S
Zn1221     O1228   1.966       .  S
Zn1221     O1232   2.018       .  S
Zn1222     O1224   1.968       .  S
Zn1222     O2699   2.116       .  S
Zn1222     O2702   2.093       .  S
Zn1222     O2705   2.081       .  S
Zn1223     O1224   1.932       .  S
Zn1223     O1231   1.967       .  S
Zn1223     O1234   2.023       .  S
Zn1223     O1235   1.934       .  S
O1225      C1237   1.273       .  A
O1226      C1238   1.272       .  A
O1227     Zn2694   2.116   1_455  S
O1227      C2711   1.289   1_455  A
O1228      C1237   1.270       .  A
O1230     Zn2694   2.093   1_455  S
O1230      C2710   1.284   1_455  A
O1231      C2712   1.268       .  A
O1232      C1241   1.273       .  A
O1233     Zn2694   2.081   1_455  S
O1233      C1240   1.282       .  A
O1234      C1241   1.266       .  A
O1236      C1242   1.273       .  A
C1238      O2702   1.284       .  A
C1238      C2918   1.477       .  S
C1239      O2699   1.289       .  A
C1240      O2703   1.268   1_455  A
C1240      C1262   1.474       .  S
C1242      C1400   1.446       .  S
Zn1243     O1247   1.933       .  S
Zn1243     O1248   1.994       .  S
Zn1243     O1252   2.024       .  S
Zn1243     O1259   1.968       .  S
Zn1244     O1247   1.987       .  S
Zn1244     O1249   2.082       .  S
Zn1244     O1251   2.110       .  S
Zn1244     O1255   2.084       .  S
Zn1245     O1247   1.942       .  S
Zn1245     O1250   2.022       .  S
Zn1245     O1253   1.958       .  S
Zn1245     O1256   1.941       .  S
Zn1246     O1247   1.972       .  S
Zn1246     O1254   2.029       .  S
Zn1246     O1257   2.018       .  S
Zn1246     O1258   2.023       .  S
O1248      C1260   1.270       .  A
O1249      C1261   1.278       .  A
O1250      C1262   1.269       .  A
O1251      C1260   1.285       .  A
O1252      C1262   1.275       .  A
O1253      C1261   1.266       .  A
O1254      C1263   1.270       .  A
O1255      C1264   1.285       .  A
O1256      C1263   1.265       .  A
O1257      C1264   1.275       .  A
O1258      C1265   1.274       .  A
O1259      C1265   1.268       .  A
C1260      C2663   1.476   1_455  S
C1261      C1449   1.461       .  S
C1264      C1287   1.475       .  S
Zn1266     O1270   1.978       .  S
Zn1266     O1282   1.995       .  S
Zn1267     O1270   1.970       .  S
Zn1267     O1278   2.011       .  S
Zn1268     O1273   1.917       .  S
Zn1268     O1276   1.919       .  S
Zn1269     O1270   1.974       .  S
Zn1269     O1277   2.121       .  S
Zn1269     O1280   2.084       .  S
Zn1269     O1281   2.018       .  S
O1271      C1283   1.272       .  A
O1272      C1284   1.276       .  A
O1273      C1285   1.257       .  A
O1274      C1283   1.272       .  A
O1275      C1285   1.272       .  A
O1276      C1284   1.261       .  A
O1277      C1286   1.281       .  A
O1278      C1287   1.274       .  A
O1279      C1286   1.261       .  A
O1280      C1287   1.283       .  A
O1281      C1288   1.276       .  A
O1282      C1288   1.274       .  A
C1283      C1447   1.452       .  S
C1285      C1354   1.457       .  S
C1288      C1378   1.450       .  S
Zn1289     O1293   1.934       .  S
Zn1289     O1294   1.991       .  S
Zn1289     O1298   1.988       .  S
Zn1289     O1305   1.949       .  S
Zn1290     O1293   1.947       .  S
Zn1290     O1295   1.974       .  S
Zn1290     O1297   2.022       .  S
Zn1290     O1301   1.954       .  S
Zn1291     O1293   1.975       .  S
Zn1291     O1296   2.109       .  S
Zn1291     O1299   2.070       .  S
Zn1291     O1302   2.088       .  S
Zn1292     O1293   1.970       .  S
Zn1292     O1300   1.984       .  S
Zn1292     O1303   2.025       .  S
Zn1292     O1304   2.031       .  S
O1294      C1306   1.270       .  A
O1295      C1307   1.268       .  A
O1296      C1308   1.286       .  A
O1297      C1306   1.269       .  A
O1298      C1308   1.267       .  A
O1299      C1307   1.278       .  A
O1300      C1309   1.270       .  A
O1301      C1310   1.267       .  A
O1302      C1309   1.285       .  A
O1303      C1310   1.270       .  A
O1304      C1311   1.275       .  A
O1305      C1311   1.266       .  A
C1306      C1472   1.466       .  S
C1308      C2873   1.487   1_455  S
C1309      C1331   1.468       .  S
C1310      C1380   1.452       .  S
C1311      C1448   1.454       .  S
Zn1312     O1316   1.987       .  S
Zn1312     O1321   2.018       .  S
Zn1312     O1328   2.003       .  S
Zn1313     O1316   1.829       .  S
Zn1313     O1318   1.894       .  S
Zn1314     O1316   2.017       .  S
Zn1314     O1319   2.064       .  S
Zn1314     O1322   2.197       .  S
Zn1314     O1325   2.041       .  S
Zn1315     O1316   1.987       .  S
Zn1315     O1323   1.974       .  S
O1317      C1329   1.277       .  A
O1318      C1330   1.260       .  A
O1319      C1331   1.283       .  A
O1320      C1329   1.259       .  A
O1321      C1331   1.276       .  A
O1322      C1330   1.283       .  A
O1323      C1332   1.274       .  A
O1324      C1333   1.261       .  A
O1325      C1332   1.279       .  A
O1326      C1333   1.270       .  A
O1327      C1334   1.273       .  A
C1329      C1379   1.476       .  S
C1330      C1422   1.505       .  S
Zn1335     O1339   1.949       .  S
Zn1335     O1340   2.026       .  S
Zn1335     O1344   1.970       .  S
Zn1335     O1351   1.949       .  S
Zn1336     O1339   1.933       .  S
Zn1336     O1341   1.996       .  S
Zn1336     O1343   1.996       .  S
Zn1336     O1347   1.961       .  S
Zn1337     O1339   1.972       .  S
Zn1337     O1342   2.061       .  S
Zn1337     O1345   2.105       .  S
Zn1337     O1348   2.086       .  S
Zn1338     O1339   1.971       .  S
Zn1338     O1346   1.984       .  S
Zn1338     O1349   2.031       .  S
Zn1338     O1350   2.023       .  S
O1340      C1352   1.269       .  A
O1341      C1353   1.268       .  A
O1342      C1354   1.277       .  A
O1343      C1352   1.272       .  A
O1344      C1354   1.267       .  A
O1345      C1353   1.286       .  A
O1346      C1355   1.270       .  A
O1347      C1356   1.268       .  A
O1348      C1355   1.285       .  A
O1349      C1356   1.275       .  A
O1350      C1357   1.270       .  A
O1351      C1357   1.267       .  A
C1355      C1377   1.468       .  S
C1357      C1421   1.450       .  S
Zn1358     O1362   2.015       .  S
Zn1358     O1363   2.195       .  S
Zn1358     O1367   2.063       .  S
Zn1358     O1374   2.041       .  S
Zn1359     O1362   1.829       .  S
Zn1359     O1364   1.902       .  S
Zn1359     O1366   1.898       .  S
Zn1359     O1370   1.921       .  S
Zn1360     O1362   1.987       .  S
Zn1360     O1365   2.019       .  S
Zn1360     O1368   2.121       .  S
Zn1360     O1371   2.005       .  S
Zn1361     O1362   1.989       .  S
Zn1361     O1369   1.996       .  S
Zn1361     O1372   2.093       .  S
Zn1361     O1373   1.967       .  S
O1363      C1375   1.282       .  A
O1364      C1376   1.260       .  A
O1365      C1377   1.277       .  A
O1366      C1375   1.261       .  A
O1367      C1377   1.283       .  A
O1368      C1376   1.277       .  A
O1369      C1378   1.272       .  A
O1370      C1379   1.262       .  A
O1371      C1378   1.273       .  A
O1372      C1379   1.269       .  A
O1373      C1380   1.272       .  A
O1374      C1380   1.279       .  A
C1376      C1423   1.478       .  S
Zn1381     O1385   1.967       .  S
Zn1381     O1386   2.037       .  S
Zn1381     O1390   2.027       .  S
Zn1381     O1397   1.972       .  S
Zn1382     O1385   1.945       .  S
Zn1382     O1387   2.019       .  S
Zn1382     O1389   1.947       .  S
Zn1382     O1393   1.980       .  S
Zn1383     O1385   1.928       .  S
Zn1383     O1388   1.951       .  S
Zn1383     O1391   1.991       .  S
Zn1383     O1394   2.000       .  S
Zn1384     O1385   1.964       .  S
Zn1384     O1392   2.094       .  S
Zn1384     O1395   2.067       .  S
Zn1384     O1396   2.116       .  S
O1386      C1398   1.273       .  A
O1387      C1399   1.266       .  A
O1388      C1400   1.268       .  A
O1389      C1398   1.267       .  A
O1390      C1400   1.274       .  A
O1391      C1399   1.269       .  A
O1392      C1401   1.286       .  A
O1393      C1402   1.269       .  A
O1394      C1401   1.268       .  A
O1395      C1402   1.280       .  A
O1396      C1403   1.288       .  A
O1397      C1403   1.267       .  A
C1401      C2780   1.487       .  S
C1402      C1471   1.473       .  S
C1403      C1425   1.474       .  S
Zn1404     O1408   1.994       .  S
Zn1404     O1409   1.955       .  S
Zn1405     O1408   2.016       .  S
Zn1405     O1410   2.200       .  S
Zn1405     O1412   2.045       .  S
Zn1405     O1416   2.077       .  S
Zn1406     O1408   1.828       .  S
Zn1406     O1414   1.893       .  S
Zn1407     O1408   1.973       .  S
Zn1407     O1418   2.029       .  S
Zn1407     O1419   1.984       .  S
O1409      C1421   1.271       .  A
O1410      C1422   1.284       .  A
O1411      C1423   1.262       .  A
O1412      C1421   1.279       .  A
O1413      C1423   1.271       .  A
O1414      C1422   1.260       .  A
O1415      C1424   1.277       .  A
O1416      C1425   1.284       .  A
O1417      C1424   1.261       .  A
O1418      C1425   1.278       .  A
O1420      C1426   1.271       .  A
C1426      C1468   1.454       .  S
Zn1427     O1431   1.862       .  S
Zn1427     O2904   1.901   1_455  S
Zn1427     O1436   1.941       .  S
Zn1427     O1443   1.924       .  S
Zn1428     O1431   1.978       .  S
Zn1428     O2905   2.015   1_455  S
Zn1428     O2907   2.090   1_455  S
Zn1428     O1439   1.987       .  S
Zn1429     O1431   1.975       .  S
Zn1429     O1434   2.137       .  S
Zn1429     O1437   2.088       .  S
Zn1429     O1440   2.034       .  S
Zn1430     O1431   1.984       .  S
Zn1430     O1438   1.986       .  S
Zn1430     O1441   2.003       .  S
Zn1430     O1442   2.089       .  S
O1432     Zn2899   1.901       .  S
O1432      C1444   1.263       .  A
O1433     Zn2900   2.015       .  S
O1433      C1445   1.275       .  A
O1434      C1446   1.283       .  A
O1435     Zn2900   2.090       .  S
O1435      C1444   1.273       .  A
O1436      C1446   1.261       .  A
O1437      C2917   1.285       .  A
O1438      C1447   1.273       .  A
O1439      C1448   1.273       .  A
O1440      C1447   1.278       .  A
O1441      C1448   1.271       .  A
O1442      C1449   1.273       .  A
O1443      C1449   1.258       .  A
C1445      O2909   1.285       .  A
C1446      C2710   1.477   1_455  S
Zn1450     O1454   1.978       .  S
Zn1450     O2927   2.094       .  S
Zn1450     O2931   2.093       .  S
Zn1450     O2938   2.058       .  S
Zn1451     O1454   1.927       .  S
Zn1451     O1456   1.942       .  S
Zn1451     O1458   1.986       .  S
Zn1451     O1462   2.017       .  S
Zn1452     O1454   1.967       .  S
Zn1452     O1457   2.006       .  S
Zn1452     O1460   2.040       .  S
Zn1452     O1463   2.033       .  S
Zn1453     O1454   1.946       .  S
Zn1453     O1461   1.962       .  S
Zn1453     O1464   2.021       .  S
Zn1453     O1465   1.961       .  S
O1455     Zn2922   2.094   1_455  S
O1455      C2939   1.282   1_455  A
O1456      C1468   1.267       .  A
O1457      C1469   1.273       .  A
O1458      C1467   1.268       .  A
O1459     Zn2922   2.093   1_455  S
O1459      C2941   1.285   1_455  A
O1460      C1468   1.277       .  A
O1461      C1470   1.268       .  A
O1462      C1471   1.272       .  A
O1463      C1470   1.272       .  A
O1464      C1471   1.268       .  A
O1465      C2944   1.268       .  A
O1466     Zn2922   2.058   1_455  S
O1466      C1472   1.278       .  A
C1467      O2927   1.282       .  A
C1467      C2690   1.472       .  S
C1469      O2931   1.285       .  A
C1472      O2937   1.268   1_455  A
Zn1473     O1477   1.991       .  S
Zn1473     O1478   1.965       .  S
Zn1473     O1482   2.009       .  S
Zn1473     O1489   2.111       .  S
Zn1474     O1477   2.017       .  S
Zn1474     O1479   2.079       .  S
Zn1474     O1481   2.048       .  S
Zn1474     O1485   2.202       .  S
Zn1475     O1477   1.975       .  S
Zn1475     O2216   1.978   1_545  S
Zn1475     O1483   2.025       .  S
Zn1475     O1486   2.116       .  S
Zn1476     O1477   1.828       .  S
Zn1476     O1484   1.904       .  S
Zn1476     O1487   1.889       .  S
Zn1476     O1488   1.917       .  S
O1478      C1490   1.273       .  A
O1479      C1491   1.284       .  A
O1480     Zn2211   1.978       .  S
O1480      C1492   1.272       .  A
O1481      C1490   1.280       .  A
O1482      C2228   1.272   1_545  A
O1483      C1491   1.277       .  A
O1484      C1493   1.260       .  A
O1485      C1494   1.284       .  A
O1486      C1493   1.276       .  A
O1487      C1494   1.260       .  A
O1488      C1495   1.261       .  A
O1489      C1495   1.272       .  A
C1490      C1766   1.453       .  S
C1491      C2250   1.474   1_545  S
C1492      O2218   1.272       .  A
C1492      C1537   1.453       .  S
C1493      C1701   1.478       .  S
C1494      C1743   1.505       .  S
C1495      C1792   1.481       .  S
Zn1496     O1500   1.943       .  S
Zn1496     O1501   1.979       .  S
Zn1496     O1505   1.947       .  S
Zn1496     O1512   2.013       .  S
Zn1497     O1500   1.968       .  S
Zn1497     O1502   2.116       .  S
Zn1497     O1504   2.071       .  S
Zn1497     O1508   2.097       .  S
Zn1498     O1500   1.969       .  S
Zn1498     O2239   2.036       .  S
Zn1498     O1506   1.974       .  S
Zn1498     O1509   2.032       .  S
Zn1499     O1500   1.928       .  S
Zn1499     O1507   1.944       .  S
Zn1499     O1510   2.002       .  S
Zn1499     O1511   1.987       .  S
O1501      C1513   1.270       .  A
O1502      C1514   1.289       .  A
O1503     Zn2234   2.036   1_545  S
O1503      C1515   1.273       .  A
O1504      C1513   1.280       .  A
O1505      C2251   1.266       .  A
O1506      C1514   1.268       .  A
O1507      C1516   1.267       .  A
O1508      C1517   1.286       .  A
O1509      C1516   1.274       .  A
O1510      C1517   1.269       .  A
O1511      C1518   1.268       .  A
O1512      C1518   1.266       .  A
C1513      C1536   1.474       .  S
C1514      C2227   1.474       .  S
C1515      O2241   1.266   1_545  A
C1515      C1700   1.453       .  S
C1516      C1631   1.445       .  S
C1517      C1721   1.488       .  S
C1518      C1652   1.450       .  S
Zn1519     O1891   1.940   1_554  S
Zn1519     O1524   2.029       .  S
Zn1519     O1528   1.953       .  S
Zn1519     O1535   1.949       .  S
Zn1520     O1523   1.921       .  S
Zn1520     O1525   1.951       .  S
Zn1520     O1895   2.013       .  S
Zn1520     O1531   1.984       .  S
Zn1521     O1523   1.967       .  S
Zn1521     O1526   2.024       .  S
Zn1521     O1529   2.026       .  S
Zn1521     O1532   2.023       .  S
Zn1522     O1523   1.979       .  S
Zn1522     O1530   2.101       .  S
Zn1522     O1533   2.093       .  S
Zn1522     O1534   2.074       .  S
O1523     Zn1887   1.940       .  S
O1524      C1536   1.270       .  A
O1525      C1537   1.268       .  A
O1526      C1906   1.271       .  A
O1527     Zn1888   2.013   1_554  S
O1527      C1536   1.272       .  A
O1528      C1538   1.267       .  A
O1529      C1537   1.274       .  A
O1530      C1539   1.287       .  A
O1531      C1540   1.268       .  A
O1532      C1539   1.275       .  A
O1533      C1540   1.282       .  A
O1534      C1909   1.279       .  A
O1535      C1541   1.266       .  A
C1538      O1894   1.271   1_554  A
C1538      C1605   1.446       .  S
C1539      C1560   1.482       .  S
C1540      C1654   1.470       .  S
C1541      O1902   1.279       .  A
C1541      C1720   1.469       .  S
Zn1542     O1546   1.862       .  S
Zn1542     O1547   1.916       .  S
Zn1542     O1551   1.926       .  S
Zn1542     O1558   1.869       .  S
Zn1543     O1546   1.987       .  S
Zn1543     O1548   2.088       .  S
Zn1543     O1550   2.154       .  S
Zn1543     O1554   2.044       .  S
Zn1544     O1546   1.961       .  S
Zn1544     O1549   2.087       .  S
Zn1544     O1552   2.035       .  S
Zn1544     O1555   1.991       .  S
Zn1545     O1546   2.003       .  S
Zn1545     O1553   2.010       .  S
Zn1545     O1556   1.973       .  S
Zn1545     O1557   2.101       .  S
O1547      C1559   1.258       .  A
O1548      C1560   1.284       .  A
O1549      C1561   1.277       .  A
O1550      C1559   1.286       .  A
O1551      C1561   1.259       .  A
O1552      C1560   1.277       .  A
O1553      C1562   1.273       .  A
O1554      C1563   1.279       .  A
O1555      C1562   1.273       .  A
O1556      C1563   1.272       .  A
O1557      C1564   1.270       .  A
O1558      C1564   1.255       .  A
C1561      C1609   1.461       .  S
C1562      C1724   1.457       .  S
C1563      C1838   1.456       .  S
C1564      C1812   1.468       .  S
Zn1565     O1569   1.959       .  S
Zn1565     O2310   1.992   1_545  S
Zn1566     O1569   1.978       .  S
Zn1566     O1571   2.022       .  S
Zn1566     O1941   2.099       .  S
Zn1566     O1577   2.129       .  S
Zn1567     O1569   1.984       .  S
Zn1567     O1572   2.007       .  S
Zn1567     O1575   1.993       .  S
Zn1567     O1578   2.095       .  S
Zn1568     O1569   1.879       .  S
Zn1568     O1576   1.914       .  S
Zn1568     O1579   1.931       .  S
O1570      C1582   1.275   1_655  A
O1571      C1583   1.277       .  A
O1572      C2320   1.272   1_545  A
O1573     Zn1934   2.099       .  S
O1574     Zn2301   1.992       .  S
O1574      C1584   1.273       .  A
O1575      C1583   1.273       .  A
O1576      C1585   1.257       .  A
O1577      C1586   1.283       .  A
O1578      C1585   1.274       .  A
O1579      C1586   1.261       .  A
O1580      C1587   1.261       .  A
O1581      C1587   1.275       .  A
C1582      C2711   1.483   1_445  S
C1583      C1702   1.451       .  S
C1584      O2308   1.272       .  A
C1584      C1633   1.456       .  S
C1585      C1675   1.460       .  S
C1587      C1767   1.454       .  S
Zn1588     O1592   1.957       .  S
Zn1588     O1593   2.017       .  S
Zn1588     O2333   2.011       .  S
Zn1588     O2340   2.039       .  S
Zn1589     O1592   1.917       .  S
Zn1589     O1594   2.013       .  S
Zn1589     O1596   1.966       .  S
Zn1589     O1600   2.018       .  S
Zn1590     O1592   1.968       .  S
Zn1591     O1592   1.932       .  S
Zn1591     O1599   1.967       .  S
Zn1591     O1602   2.023       .  S
Zn1591     O1603   1.934       .  S
O1593      C1605   1.273       .  A
O1594      C1606   1.272       .  A
O1596      C1605   1.270       .  A
O1597     Zn2324   2.011       .  S
O1597      C2343   1.274       .  A
O1600      C1609   1.273       .  A
O1601      C1608   1.282       .  A
O1602      C1609   1.266       .  A
O1603      C2346   1.265       .  A
O1604     Zn2324   2.039   1_545  S
O1604      C1610   1.273       .  A
C1607      O2333   1.274       .  A
C1607      C2686   1.483   1_654  S
C1608      C1630   1.474       .  S
C1610      O2339   1.265   1_545  A
C1610      C1768   1.446       .  S
Zn1611     O1615   1.933       .  S
Zn1611     O1616   1.994       .  S
Zn1611     O1620   2.024       .  S
Zn1611     O1627   1.968       .  S
Zn1612     O1615   1.987       .  S
Zn1612     O1617   2.082       .  S
Zn1612     O1619   2.110       .  S
Zn1612     O1623   2.084       .  S
Zn1613     O1615   1.942       .  S
Zn1613     O1618   2.022       .  S
Zn1613     O1621   1.958       .  S
Zn1613     O1624   1.941       .  S
Zn1614     O1615   1.972       .  S
Zn1614     O1622   2.029       .  S
Zn1614     O1625   2.018       .  S
Zn1614     O1626   2.023       .  S
O1616      C1628   1.270       .  A
O1617      C1629   1.278       .  A
O1618      C1630   1.269       .  A
O1619      C1628   1.285       .  A
O1620      C1630   1.275       .  A
O1621      C1629   1.266       .  A
O1622      C1631   1.270       .  A
O1623      C1632   1.285       .  A
O1624      C1631   1.265       .  A
O1625      C1632   1.275       .  A
O1626      C1633   1.274       .  A
O1627      C1633   1.268       .  A
C1629      C1817   1.461       .  S
C1632      C1655   1.475       .  S
Zn1634     O1638   1.978       .  S
Zn1634     O2007   1.997       .  S
Zn1634     O2011   2.081       .  S
Zn1634     O1650   1.995       .  S
Zn1635     O1638   1.970       .  S
Zn1635     O2008   2.068       .  S
Zn1635     O2010   2.008       .  S
Zn1635     O1646   2.011       .  S
Zn1636     O2006   1.881   1_554  S
Zn1636     O1641   1.917       .  S
Zn1636     O1644   1.919       .  S
Zn1636     O2015   1.936   1_554  S
Zn1637     O1638   1.974       .  S
Zn1637     O1645   2.121       .  S
Zn1637     O1648   2.083       .  S
Zn1637     O1649   2.018       .  S
O1638     Zn2004   1.881       .  S
O1639     Zn2002   1.997   1_554  S
O1639      C1651   1.272       .  A
O1640     Zn2003   2.068   1_554  S
O1640      C1652   1.276       .  A
O1641      C1653   1.257       .  A
O1642     Zn2003   2.008   1_554  S
O1642      C1651   1.272       .  A
O1643     Zn2002   2.081   1_554  S
O1643      C1653   1.272       .  A
O1644      C1652   1.261       .  A
O1645      C1654   1.281       .  A
O1646      C1655   1.274       .  A
O1647     Zn2004   1.936       .  S
O1647      C1654   1.261       .  A
O1648      C1655   1.283       .  A
O1649      C1656   1.276       .  A
O1650      C1656   1.274       .  A
C1651      C1815   1.452       .  S
C1653      C1722   1.457       .  S
C1656      C1746   1.450       .  S
Zn1657     O1661   1.934       .  S
Zn1657     O1662   1.991       .  S
Zn1657     O1666   1.988       .  S
Zn1657     O1673   1.949       .  S
Zn1658     O1661   1.947       .  S
Zn1658     O1663   1.974       .  S
Zn1658     O1665   2.022       .  S
Zn1658     O1669   1.954       .  S
Zn1659     O1661   1.975       .  S
Zn1659     O1664   2.109       .  S
Zn1659     O1667   2.070       .  S
Zn1659     O1670   2.088       .  S
Zn1660     O1661   1.970       .  S
Zn1660     O1668   1.984       .  S
Zn1660     O1671   2.025       .  S
Zn1660     O1672   2.031       .  S
O1662      C1674   1.270       .  A
O1663      C1675   1.268       .  A
O1664      C1676   1.286       .  A
O1665      C1674   1.269       .  A
O1666      C1676   1.267       .  A
O1667      C1675   1.278       .  A
O1668      C1677   1.270       .  A
O1669      C1678   1.267       .  A
O1670      C1677   1.285       .  A
O1671      C1678   1.270       .  A
O1672      C1679   1.275       .  A
O1673      C1679   1.266       .  A
C1674      C1840   1.466       .  S
C1677      C1699   1.468       .  S
C1678      C1748   1.452       .  S
C1679      C1816   1.454       .  S
Zn1680     O1684   1.987       .  S
Zn1680     O2053   2.118   1_554  S
Zn1680     O1689   2.018       .  S
Zn1680     O1696   2.003   1_554  S
Zn1681     O1684   1.829       .  S
Zn1681     O1686   1.894       .  S
Zn1681     O2056   1.896   1_554  S
Zn1681     O2060   1.918   1_554  S
Zn1682     O1684   2.017       .  S
Zn1682     O1687   2.064       .  S
Zn1682     O1690   2.197       .  S
Zn1682     O1693   2.041       .  S
Zn1683     O1684   1.987       .  S
Zn1683     O1691   1.974       .  S
Zn1683     O2062   2.100   1_554  S
Zn1683     O2063   2.001   1_554  S
O1685     Zn2048   2.118       .  S
O1685      C1697   1.277       .  A
O1686      C1698   1.260       .  A
O1687      C1699   1.283       .  A
O1688     Zn2049   1.896       .  S
O1688      C1697   1.259       .  A
O1689      C1699   1.276       .  A
O1690      C1698   1.283       .  A
O1691      C1700   1.274       .  A
O1692     Zn2049   1.918       .  S
O1692      C1701   1.261       .  A
O1693      C1700   1.279       .  A
O1694     Zn2051   2.100       .  S
O1694      C1701   1.270       .  A
O1695     Zn2051   2.001       .  S
O1695      C1702   1.273       .  A
O1696      C2070   1.272       .  A
C1697      C1747   1.476       .  S
C1698      C1790   1.505       .  S
C1702      O2064   1.272       .  A
Zn1703     O1707   1.949       .  S
Zn1703     O1708   2.026       .  S
Zn1703     O1712   1.970       .  S
Zn1703     O1719   1.949       .  S
Zn1704     O1707   1.933       .  S
Zn1704     O1709   1.996       .  S
Zn1704     O1711   1.996       .  S
Zn1704     O1715   1.961       .  S
Zn1705     O1707   1.972       .  S
Zn1705     O1710   2.061       .  S
Zn1705     O1713   2.105       .  S
Zn1705     O1716   2.086       .  S
Zn1706     O1707   1.971       .  S
Zn1706     O1714   1.984       .  S
Zn1706     O1717   2.031       .  S
Zn1706     O1718   2.023       .  S
O1708      C1720   1.269       .  A
O1709      C1721   1.268       .  A
O1710      C1722   1.277       .  A
O1711      C1720   1.272       .  A
O1712      C1722   1.267       .  A
O1713      C1721   1.286       .  A
O1714      C1723   1.270       .  A
O1715      C1724   1.268       .  A
O1716      C1723   1.285       .  A
O1717      C1724   1.275       .  A
O1718      C1725   1.270       .  A
O1719      C1725   1.267       .  A
C1723      C1745   1.468       .  S
C1725      C1789   1.450       .  S
Zn1726     O1730   2.015       .  S
Zn1726     O1731   2.195       .  S
Zn1726     O1735   2.063       .  S
Zn1726     O1742   2.041       .  S
Zn1727     O1730   1.829       .  S
Zn1727     O1732   1.902       .  S
Zn1727     O1734   1.898       .  S
Zn1727     O1738   1.921       .  S
Zn1728     O1730   1.987       .  S
Zn1728     O1733   2.019       .  S
Zn1728     O1736   2.121       .  S
Zn1728     O1739   2.005       .  S
Zn1729     O1730   1.989       .  S
Zn1729     O1737   1.996       .  S
Zn1729     O1740   2.093       .  S
Zn1729     O1741   1.967       .  S
O1731      C1743   1.282       .  A
O1732      C1744   1.260       .  A
O1733      C1745   1.277       .  A
O1734      C1743   1.261       .  A
O1735      C1745   1.283       .  A
O1736      C1744   1.277       .  A
O1737      C1746   1.272       .  A
O1738      C1747   1.262       .  A
O1739      C1746   1.273       .  A
O1740      C1747   1.269       .  A
O1741      C1748   1.272       .  A
O1742      C1748   1.279       .  A
C1744      C1791   1.478       .  S
Zn1749     O1753   1.967       .  S
Zn1749     O1754   2.037       .  S
Zn1749     O1758   2.027       .  S
Zn1749     O1765   1.972       .  S
Zn1750     O1753   1.945       .  S
Zn1750     O1755   2.019       .  S
Zn1750     O1757   1.947       .  S
Zn1750     O1761   1.980       .  S
Zn1751     O1753   1.928       .  S
Zn1751     O1756   1.951       .  S
Zn1751     O1759   1.991       .  S
Zn1751     O1762   2.000       .  S
Zn1752     O1753   1.964       .  S
Zn1752     O1760   2.094       .  S
Zn1752     O1763   2.067       .  S
Zn1752     O1764   2.116       .  S
O1754      C1766   1.273       .  A
O1755      C1767   1.266       .  A
O1756      C1768   1.268       .  A
O1757      C1766   1.267       .  A
O1758      C1768   1.274       .  A
O1759      C1767   1.269       .  A
O1760      C1769   1.286       .  A
O1761      C1770   1.269       .  A
O1762      C1769   1.268       .  A
O1763      C1770   1.280       .  A
O1764      C1771   1.288       .  A
O1765      C1771   1.267       .  A
C1770      C1839   1.473       .  S
C1771      C1793   1.474       .  S
Zn1772     O1776   1.994       .  S
Zn1772     O1777   1.955       .  S
Zn1772     O2149   2.102   1_554  S
Zn1772     O2156   2.006   1_554  S
Zn1773     O1776   2.016       .  S
Zn1773     O1778   2.200       .  S
Zn1773     O1780   2.045       .  S
Zn1773     O1784   2.077       .  S
Zn1774     O1776   1.828       .  S
Zn1774     O2147   1.919   1_554  S
Zn1774     O1782   1.893       .  S
Zn1774     O2153   1.908   1_554  S
Zn1775     O1776   1.973       .  S
Zn1775     O2151   2.124   1_554  S
Zn1775     O1786   2.029       .  S
Zn1775     O1787   1.984   1_554  S
O1777      C1789   1.271       .  A
O1778      C1790   1.284       .  A
O1779     Zn2142   1.919       .  S
O1779      C1791   1.262       .  A
O1780      C1789   1.279       .  A
O1781     Zn2140   2.102       .  S
O1781      C1791   1.271       .  A
O1782      C1790   1.260       .  A
O1783     Zn2143   2.124       .  S
O1783      C1792   1.277       .  A
O1784      C1793   1.284       .  A
O1785     Zn2142   1.908       .  S
O1785      C1792   1.261       .  A
O1786      C1793   1.278       .  A
O1787      C2162   1.273       .  A
O1788     Zn2140   2.006       .  S
O1788      C1794   1.271       .  A
C1794      O2155   1.273       .  A
C1794      C1836   1.454       .  S
Zn1795     O1799   1.862       .  S
Zn1795     O1804   1.941       .  S
Zn1795     O1811   1.924       .  S
Zn1796     O1799   1.978       .  S
Zn1796     O1807   1.987       .  S
Zn1797     O1799   1.975       .  S
Zn1797     O1802   2.137       .  S
Zn1797     O1805   2.088       .  S
Zn1797     O1808   2.034       .  S
Zn1798     O1799   1.984       .  S
Zn1798     O1806   1.986       .  S
Zn1798     O1809   2.003       .  S
Zn1798     O1810   2.089       .  S
O1800      C1812   1.263       .  A
O1801      C1813   1.275   1_655  A
O1802      C1814   1.283       .  A
O1803      C1812   1.273       .  A
O1804      C1814   1.261       .  A
O1806      C1815   1.273       .  A
O1807      C1816   1.273       .  A
O1808      C1815   1.278       .  A
O1809      C1816   1.271       .  A
O1810      C1817   1.273       .  A
O1811      C1817   1.258       .  A
C1813      C2205   1.476   1_454  S
Zn1818     O1822   1.978       .  S
Zn1819     O1822   1.927       .  S
Zn1819     O1824   1.942       .  S
Zn1819     O1826   1.986       .  S
Zn1819     O1830   2.017       .  S
Zn1820     O1822   1.967       .  S
Zn1820     O1825   2.006       .  S
Zn1820     O1828   2.040       .  S
Zn1820     O1831   2.033       .  S
Zn1821     O1822   1.946       .  S
Zn1821     O1829   1.962       .  S
Zn1821     O1832   2.021       .  S
Zn1821     O1833   1.961       .  S
O1824      C1836   1.267       .  A
O1825      C1837   1.273       .  A
O1826      C1835   1.268       .  A
O1828      C1836   1.277       .  A
O1829      C1838   1.268       .  A
O1830      C1839   1.272       .  A
O1831      C1838   1.272       .  A
O1832      C1839   1.268       .  A
O1834      C1840   1.278       .  A
C1837      C2181   1.476   1_655  S
Zn1841     O1845   1.991       .  S
Zn1841     O1846   1.965       .  S
Zn1841     O1850   2.009       .  S
Zn1841     O1857   2.111       .  S
Zn1842     O1845   2.017       .  S
Zn1842     O1847   2.079       .  S
Zn1842     O1849   2.048       .  S
Zn1842     O1853   2.202       .  S
Zn1843     O1845   1.975       .  S
Zn1843     O2584   1.978   1_545  S
Zn1843     O1851   2.025       .  S
Zn1843     O1854   2.116       .  S
Zn1844     O1845   1.828       .  S
Zn1844     O1852   1.904       .  S
Zn1844     O1855   1.889       .  S
Zn1844     O1856   1.917       .  S
O1846      C1858   1.273       .  A
O1847      C1859   1.284       .  A
O1848     Zn2579   1.978       .  S
O1848      C1860   1.272       .  A
O1849      C1858   1.280       .  A
O1850      C2596   1.272   1_545  A
O1851      C1859   1.277       .  A
O1852      C1861   1.260       .  A
O1853      C1862   1.284       .  A
O1854      C1861   1.276       .  A
O1855      C1862   1.260       .  A
O1856      C1863   1.261       .  A
O1857      C1863   1.272       .  A
C1858      C2134   1.453       .  S
C1859      C2618   1.474   1_545  S
C1860      O2586   1.272       .  A
C1860      C1905   1.453       .  S
C1861      C2069   1.478       .  S
C1862      C2111   1.505       .  S
C1863      C2160   1.481       .  S
Zn1864     O1868   1.943       .  S
Zn1864     O1869   1.979       .  S
Zn1864     O1873   1.947       .  S
Zn1864     O1880   2.013       .  S
Zn1865     O1868   1.968       .  S
Zn1865     O1870   2.116       .  S
Zn1865     O1872   2.071       .  S
Zn1865     O1876   2.097       .  S
Zn1866     O1868   1.969       .  S
Zn1866     O2607   2.036       .  S
Zn1866     O1874   1.974       .  S
Zn1866     O1877   2.032       .  S
Zn1867     O1868   1.928       .  S
Zn1867     O1875   1.944       .  S
Zn1867     O1878   2.002       .  S
Zn1867     O1879   1.987       .  S
O1869      C1881   1.270       .  A
O1870      C1882   1.289       .  A
O1871     Zn2602   2.036   1_545  S
O1871      C1883   1.273       .  A
O1872      C1881   1.280       .  A
O1873      C2619   1.266       .  A
O1874      C1882   1.268       .  A
O1875      C1884   1.267       .  A
O1876      C1885   1.286       .  A
O1877      C1884   1.274       .  A
O1878      C1885   1.269       .  A
O1879      C1886   1.268       .  A
O1880      C1886   1.266       .  A
C1881      C1904   1.474       .  S
C1882      C2595   1.474       .  S
C1883      O2609   1.266   1_545  A
C1883      C2068   1.453       .  S
C1884      C1999   1.445       .  S
C1885      C2089   1.488       .  S
C1886      C2020   1.450       .  S
Zn1887     O1892   2.029       .  S
Zn1887     O1896   1.953       .  S
Zn1887     O1903   1.949       .  S
Zn1888     O1891   1.921       .  S
Zn1888     O1893   1.951       .  S
Zn1888     O1899   1.984       .  S
Zn1889     O1891   1.967       .  S
Zn1889     O1894   2.024       .  S
Zn1889     O1897   2.026       .  S
Zn1889     O1900   2.023       .  S
Zn1890     O1891   1.979       .  S
Zn1890     O1898   2.101       .  S
Zn1890     O1901   2.093       .  S
Zn1890     O1902   2.074   1_556  S
O1892      C1904   1.270       .  A
O1893      C1905   1.268       .  A
O1895      C1904   1.272       .  A
O1896      C1906   1.267       .  A
O1897      C1905   1.274       .  A
O1898      C1907   1.287       .  A
O1899      C1908   1.268       .  A
O1900      C1907   1.275       .  A
O1901      C1908   1.282       .  A
O1903      C1909   1.266       .  A
C1906      C1973   1.446       .  S
C1907      C1928   1.482       .  S
C1908      C2022   1.470       .  S
C1909      C2088   1.469       .  S
Zn1910     O1914   1.862       .  S
Zn1910     O1915   1.916       .  S
Zn1910     O1919   1.926       .  S
Zn1910     O1926   1.869       .  S
Zn1911     O1914   1.987       .  S
Zn1911     O1916   2.088       .  S
Zn1911     O1918   2.154       .  S
Zn1911     O1922   2.044       .  S
Zn1912     O1914   1.961       .  S
Zn1912     O1917   2.087       .  S
Zn1912     O1920   2.035       .  S
Zn1912     O1923   1.991       .  S
Zn1913     O1914   2.003       .  S
Zn1913     O1921   2.010       .  S
Zn1913     O1924   1.973       .  S
Zn1913     O1925   2.101       .  S
O1915      C1927   1.258       .  A
O1916      C1928   1.284       .  A
O1917      C1929   1.277       .  A
O1918      C1927   1.286       .  A
O1919      C1929   1.259       .  A
O1920      C1928   1.277       .  A
O1921      C1930   1.273       .  A
O1922      C1931   1.279       .  A
O1923      C1930   1.273       .  A
O1924      C1931   1.272       .  A
O1925      C1932   1.270       .  A
O1926      C1932   1.255       .  A
C1929      C1977   1.461       .  S
C1930      C2092   1.457       .  S
C1931      C2206   1.456       .  S
C1932      C2180   1.468       .  S
Zn1933     O1937   1.959       .  S
Zn1933     O2678   1.992   1_545  S
Zn1934     O1937   1.978       .  S
Zn1934     O1939   2.022       .  S
Zn1934     O1945   2.129       .  S
Zn1935     O1937   1.984       .  S
Zn1935     O1940   2.007       .  S
Zn1935     O1943   1.993       .  S
Zn1935     O1946   2.095       .  S
Zn1936     O1937   1.879       .  S
Zn1936     O1944   1.914       .  S
Zn1936     O1947   1.931       .  S
O1938      C1950   1.275   1_655  A
O1939      C1951   1.277       .  A
O1940      C2688   1.272   1_545  A
O1942     Zn2669   1.992       .  S
O1942      C1952   1.273       .  A
O1943      C1951   1.273       .  A
O1944      C1953   1.257       .  A
O1945      C1954   1.283       .  A
O1946      C1953   1.274       .  A
O1947      C1954   1.261       .  A
O1948      C1955   1.261       .  A
O1949      C1955   1.275       .  A
C1950      C2343   1.483   1_446  S
C1951      C2070   1.451       .  S
C1952      O2676   1.272       .  A
C1952      C2001   1.456       .  S
C1953      C2043   1.460       .  S
C1955      C2135   1.454       .  S
Zn1956     O1960   1.957       .  S
Zn1956     O1961   2.017       .  S
Zn1956     O2701   2.011       .  S
Zn1956     O2708   2.039       .  S
Zn1957     O1960   1.917       .  S
Zn1957     O1962   2.013       .  S
Zn1957     O1964   1.966       .  S
Zn1957     O1968   2.018       .  S
Zn1958     O1960   1.968       .  S
Zn1959     O1960   1.932       .  S
Zn1959     O1967   1.967       .  S
Zn1959     O1970   2.023       .  S
Zn1959     O1971   1.934       .  S
O1961      C1973   1.273       .  A
O1962      C1974   1.272       .  A
O1964      C1973   1.270       .  A
O1965     Zn2692   2.011       .  S
O1965      C2711   1.274       .  A
O1968      C1977   1.273       .  A
O1969      C1976   1.282       .  A
O1970      C1977   1.266       .  A
O1971      C2714   1.265       .  A
O1972     Zn2692   2.039   1_545  S
O1972      C1978   1.273       .  A
C1975      O2701   1.274       .  A
C1975      C2318   1.483   1_655  S
C1976      C1998   1.474       .  S
C1978      O2707   1.265   1_545  A
C1978      C2136   1.446       .  S
Zn1979     O1983   1.933       .  S
Zn1979     O1984   1.994       .  S
Zn1979     O1988   2.024       .  S
Zn1979     O1995   1.968       .  S
Zn1980     O1983   1.987       .  S
Zn1980     O1985   2.082       .  S
Zn1980     O1987   2.110       .  S
Zn1980     O1991   2.084       .  S
Zn1981     O1983   1.942       .  S
Zn1981     O1986   2.022       .  S
Zn1981     O1989   1.958       .  S
Zn1981     O1992   1.941       .  S
Zn1982     O1983   1.972       .  S
Zn1982     O1990   2.029       .  S
Zn1982     O1993   2.018       .  S
Zn1982     O1994   2.023       .  S
O1984      C1996   1.270       .  A
O1985      C1997   1.278       .  A
O1986      C1998   1.269       .  A
O1987      C1996   1.285       .  A
O1988      C1998   1.275       .  A
O1989      C1997   1.266       .  A
O1990      C1999   1.270       .  A
O1991      C2000   1.285       .  A
O1992      C1999   1.265       .  A
O1993      C2000   1.275       .  A
O1994      C2001   1.274       .  A
O1995      C2001   1.268       .  A
C1997      C2185   1.461       .  S
C2000      C2023   1.475       .  S
Zn2002     O2006   1.978       .  S
Zn2002     O2018   1.995       .  S
Zn2003     O2006   1.970       .  S
Zn2003     O2014   2.011       .  S
Zn2004     O2009   1.917       .  S
Zn2004     O2012   1.919       .  S
Zn2005     O2006   1.974       .  S
Zn2005     O2013   2.121       .  S
Zn2005     O2016   2.084       .  S
Zn2005     O2017   2.018       .  S
O2007      C2019   1.272       .  A
O2008      C2020   1.276       .  A
O2009      C2021   1.257       .  A
O2010      C2019   1.272       .  A
O2011      C2021   1.272       .  A
O2012      C2020   1.261       .  A
O2013      C2022   1.281       .  A
O2014      C2023   1.274       .  A
O2015      C2022   1.261       .  A
O2016      C2023   1.283       .  A
O2017      C2024   1.276       .  A
O2018      C2024   1.274       .  A
C2019      C2183   1.452       .  S
C2021      C2090   1.457       .  S
C2024      C2114   1.450       .  S
Zn2025     O2029   1.934       .  S
Zn2025     O2030   1.991       .  S
Zn2025     O2034   1.988       .  S
Zn2025     O2041   1.949       .  S
Zn2026     O2029   1.947       .  S
Zn2026     O2031   1.974       .  S
Zn2026     O2033   2.022       .  S
Zn2026     O2037   1.954       .  S
Zn2027     O2029   1.975       .  S
Zn2027     O2032   2.109       .  S
Zn2027     O2035   2.070       .  S
Zn2027     O2038   2.088       .  S
Zn2028     O2029   1.970       .  S
Zn2028     O2036   1.984       .  S
Zn2028     O2039   2.025       .  S
Zn2028     O2040   2.031       .  S
O2030      C2042   1.270       .  A
O2031      C2043   1.268       .  A
O2032      C2044   1.286       .  A
O2033      C2042   1.269       .  A
O2034      C2044   1.267       .  A
O2035      C2043   1.278       .  A
O2036      C2045   1.270       .  A
O2037      C2046   1.267       .  A
O2038      C2045   1.285       .  A
O2039      C2046   1.270       .  A
O2040      C2047   1.275       .  A
O2041      C2047   1.266       .  A
C2042      C2208   1.466       .  S
C2045      C2067   1.468       .  S
C2046      C2116   1.452       .  S
C2047      C2184   1.454       .  S
Zn2048     O2052   1.987       .  S
Zn2048     O2057   2.018       .  S
Zn2048     O2064   2.003       .  S
Zn2049     O2052   1.829       .  S
Zn2049     O2054   1.894       .  S
Zn2050     O2052   2.017       .  S
Zn2050     O2055   2.064       .  S
Zn2050     O2058   2.197       .  S
Zn2050     O2061   2.041       .  S
Zn2051     O2052   1.987       .  S
Zn2051     O2059   1.974       .  S
O2053      C2065   1.277       .  A
O2054      C2066   1.260       .  A
O2055      C2067   1.283       .  A
O2056      C2065   1.259       .  A
O2057      C2067   1.276       .  A
O2058      C2066   1.283       .  A
O2059      C2068   1.274       .  A
O2060      C2069   1.261       .  A
O2061      C2068   1.279       .  A
O2062      C2069   1.270       .  A
O2063      C2070   1.273       .  A
C2065      C2115   1.476       .  S
C2066      C2158   1.505       .  S
Zn2071     O2075   1.949       .  S
Zn2071     O2076   2.026       .  S
Zn2071     O2080   1.970       .  S
Zn2071     O2087   1.949       .  S
Zn2072     O2075   1.933       .  S
Zn2072     O2077   1.996       .  S
Zn2072     O2079   1.996       .  S
Zn2072     O2083   1.961       .  S
Zn2073     O2075   1.972       .  S
Zn2073     O2078   2.061       .  S
Zn2073     O2081   2.105       .  S
Zn2073     O2084   2.086       .  S
Zn2074     O2075   1.971       .  S
Zn2074     O2082   1.984       .  S
Zn2074     O2085   2.031       .  S
Zn2074     O2086   2.023       .  S
O2076      C2088   1.269       .  A
O2077      C2089   1.268       .  A
O2078      C2090   1.277       .  A
O2079      C2088   1.272       .  A
O2080      C2090   1.267       .  A
O2081      C2089   1.286       .  A
O2082      C2091   1.270       .  A
O2083      C2092   1.268       .  A
O2084      C2091   1.285       .  A
O2085      C2092   1.275       .  A
O2086      C2093   1.270       .  A
O2087      C2093   1.267       .  A
C2091      C2113   1.468       .  S
C2093      C2157   1.450       .  S
Zn2094     O2098   2.015       .  S
Zn2094     O2099   2.195       .  S
Zn2094     O2103   2.063       .  S
Zn2094     O2110   2.041       .  S
Zn2095     O2098   1.829       .  S
Zn2095     O2100   1.902       .  S
Zn2095     O2102   1.898       .  S
Zn2095     O2106   1.921       .  S
Zn2096     O2098   1.987       .  S
Zn2096     O2101   2.019       .  S
Zn2096     O2104   2.121       .  S
Zn2096     O2107   2.005       .  S
Zn2097     O2098   1.989       .  S
Zn2097     O2105   1.996       .  S
Zn2097     O2108   2.093       .  S
Zn2097     O2109   1.967       .  S
O2099      C2111   1.282       .  A
O2100      C2112   1.260       .  A
O2101      C2113   1.277       .  A
O2102      C2111   1.261       .  A
O2103      C2113   1.283       .  A
O2104      C2112   1.277       .  A
O2105      C2114   1.272       .  A
O2106      C2115   1.262       .  A
O2107      C2114   1.273       .  A
O2108      C2115   1.269       .  A
O2109      C2116   1.272       .  A
O2110      C2116   1.279       .  A
C2112      C2159   1.478       .  S
Zn2117     O2121   1.967       .  S
Zn2117     O2122   2.037       .  S
Zn2117     O2126   2.027       .  S
Zn2117     O2133   1.972       .  S
Zn2118     O2121   1.945       .  S
Zn2118     O2123   2.019       .  S
Zn2118     O2125   1.947       .  S
Zn2118     O2129   1.980       .  S
Zn2119     O2121   1.928       .  S
Zn2119     O2124   1.951       .  S
Zn2119     O2127   1.991       .  S
Zn2119     O2130   2.000       .  S
Zn2120     O2121   1.964       .  S
Zn2120     O2128   2.094       .  S
Zn2120     O2131   2.067       .  S
Zn2120     O2132   2.116       .  S
O2122      C2134   1.273       .  A
O2123      C2135   1.266       .  A
O2124      C2136   1.268       .  A
O2125      C2134   1.267       .  A
O2126      C2136   1.274       .  A
O2127      C2135   1.269       .  A
O2128      C2137   1.286       .  A
O2129      C2138   1.269       .  A
O2130      C2137   1.268       .  A
O2131      C2138   1.280       .  A
O2132      C2139   1.288       .  A
O2133      C2139   1.267       .  A
C2138      C2207   1.473       .  S
C2139      C2161   1.474       .  S
Zn2140     O2144   1.994       .  S
Zn2140     O2145   1.955       .  S
Zn2141     O2144   2.016       .  S
Zn2141     O2146   2.200       .  S
Zn2141     O2148   2.045       .  S
Zn2141     O2152   2.077       .  S
Zn2142     O2144   1.828       .  S
Zn2142     O2150   1.893       .  S
Zn2143     O2144   1.973       .  S
Zn2143     O2154   2.029       .  S
Zn2143     O2155   1.984       .  S
O2145      C2157   1.271       .  A
O2146      C2158   1.284       .  A
O2147      C2159   1.262       .  A
O2148      C2157   1.279       .  A
O2149      C2159   1.271       .  A
O2150      C2158   1.260       .  A
O2151      C2160   1.277       .  A
O2152      C2161   1.284       .  A
O2153      C2160   1.261       .  A
O2154      C2161   1.278       .  A
O2156      C2162   1.271       .  A
C2162      C2204   1.454       .  S
Zn2163     O2167   1.862       .  S
Zn2163     O2172   1.941       .  S
Zn2163     O2179   1.924       .  S
Zn2164     O2167   1.978       .  S
Zn2164     O2175   1.987       .  S
Zn2165     O2167   1.975       .  S
Zn2165     O2170   2.137       .  S
Zn2165     O2173   2.088       .  S
Zn2165     O2176   2.034       .  S
Zn2166     O2167   1.984       .  S
Zn2166     O2174   1.986       .  S
Zn2166     O2177   2.003       .  S
Zn2166     O2178   2.089       .  S
O2168      C2180   1.263       .  A
O2169      C2181   1.275   1_655  A
O2170      C2182   1.283       .  A
O2171      C2180   1.273       .  A
O2172      C2182   1.261       .  A
O2174      C2183   1.273       .  A
O2175      C2184   1.273       .  A
O2176      C2183   1.278       .  A
O2177      C2184   1.271       .  A
O2178      C2185   1.273       .  A
O2179      C2185   1.258       .  A
Zn2186     O2190   1.978       .  S
Zn2187     O2190   1.927       .  S
Zn2187     O2192   1.942       .  S
Zn2187     O2194   1.986       .  S
Zn2187     O2198   2.017       .  S
Zn2188     O2190   1.967       .  S
Zn2188     O2193   2.006       .  S
Zn2188     O2196   2.040       .  S
Zn2188     O2199   2.033       .  S
Zn2189     O2190   1.946       .  S
Zn2189     O2197   1.962       .  S
Zn2189     O2200   2.021       .  S
Zn2189     O2201   1.961       .  S
O2192      C2204   1.267       .  A
O2193      C2205   1.273       .  A
O2194      C2203   1.268       .  A
O2196      C2204   1.277       .  A
O2197      C2206   1.268       .  A
O2198      C2207   1.272       .  A
O2199      C2206   1.272       .  A
O2200      C2207   1.268       .  A
O2202      C2208   1.278       .  A
Zn2209     O2213   1.991       .  S
Zn2209     O2214   1.965       .  S
Zn2209     O2218   2.009       .  S
Zn2209     O2225   2.111       .  S
Zn2210     O2213   2.017       .  S
Zn2210     O2215   2.079       .  S
Zn2210     O2217   2.048       .  S
Zn2210     O2221   2.202       .  S
Zn2211     O2213   1.975       .  S
Zn2211     O2219   2.025       .  S
Zn2211     O2222   2.116       .  S
Zn2212     O2213   1.828       .  S
Zn2212     O2220   1.904       .  S
Zn2212     O2223   1.889       .  S
Zn2212     O2224   1.917       .  S
O2214      C2226   1.273       .  A
O2215      C2227   1.284       .  A
O2216      C2228   1.272       .  A
O2217      C2226   1.280       .  A
O2219      C2227   1.277       .  A
O2220      C2229   1.260       .  A
O2221      C2230   1.284       .  A
O2222      C2229   1.276       .  A
O2223      C2230   1.260       .  A
O2224      C2231   1.261       .  A
O2225      C2231   1.272       .  A
C2226      C2502   1.453       .  S
C2228      C2273   1.453       .  S
C2229      C2437   1.478       .  S
C2230      C2479   1.505       .  S
C2231      C2528   1.481       .  S
Zn2232     O2236   1.943       .  S
Zn2232     O2237   1.979       .  S
Zn2232     O2241   1.947       .  S
Zn2232     O2248   2.013       .  S
Zn2233     O2236   1.968       .  S
Zn2233     O2238   2.116       .  S
Zn2233     O2240   2.071       .  S
Zn2233     O2244   2.097       .  S
Zn2234     O2236   1.969       .  S
Zn2234     O2242   1.974       .  S
Zn2234     O2245   2.032       .  S
Zn2235     O2236   1.928       .  S
Zn2235     O2243   1.944       .  S
Zn2235     O2246   2.002       .  S
Zn2235     O2247   1.987       .  S
O2237      C2249   1.270       .  A
O2238      C2250   1.289       .  A
O2239      C2251   1.273       .  A
O2240      C2249   1.280       .  A
O2242      C2250   1.268       .  A
O2243      C2252   1.267       .  A
O2244      C2253   1.286       .  A
O2245      C2252   1.274       .  A
O2246      C2253   1.269       .  A
O2247      C2254   1.268       .  A
O2248      C2254   1.266       .  A
C2249      C2272   1.474       .  S
C2251      C2436   1.453       .  S
C2252      C2367   1.445       .  S
C2253      C2457   1.488       .  S
C2254      C2388   1.450       .  S
Zn2255     O2627   1.940   1_554  S
Zn2255     O2260   2.029       .  S
Zn2255     O2264   1.953       .  S
Zn2255     O2271   1.949       .  S
Zn2256     O2259   1.921       .  S
Zn2256     O2261   1.951       .  S
Zn2256     O2631   2.013       .  S
Zn2256     O2267   1.984       .  S
Zn2257     O2259   1.967       .  S
Zn2257     O2262   2.024       .  S
Zn2257     O2265   2.026       .  S
Zn2257     O2268   2.023       .  S
Zn2258     O2259   1.979       .  S
Zn2258     O2266   2.101       .  S
Zn2258     O2269   2.093       .  S
Zn2258     O2270   2.074       .  S
O2259     Zn2623   1.940       .  S
O2260      C2272   1.270       .  A
O2261      C2273   1.268       .  A
O2262      C2642   1.271       .  A
O2263     Zn2624   2.013   1_554  S
O2263      C2272   1.272       .  A
O2264      C2274   1.267       .  A
O2265      C2273   1.274       .  A
O2266      C2275   1.287       .  A
O2267      C2276   1.268       .  A
O2268      C2275   1.275       .  A
O2269      C2276   1.282       .  A
O2270      C2645   1.279       .  A
O2271      C2277   1.266       .  A
C2274      O2630   1.271   1_554  A
C2274      C2341   1.446       .  S
C2275      C2296   1.482       .  S
C2276      C2390   1.470       .  S
C2277      O2638   1.279       .  A
C2277      C2456   1.469       .  S
Zn2278     O2282   1.862       .  S
Zn2278     O2283   1.916       .  S
Zn2278     O2287   1.926       .  S
Zn2278     O2294   1.869       .  S
Zn2279     O2282   1.987       .  S
Zn2279     O2284   2.088       .  S
Zn2279     O2286   2.154       .  S
Zn2279     O2290   2.044       .  S
Zn2280     O2282   1.961       .  S
Zn2280     O2285   2.087       .  S
Zn2280     O2288   2.035       .  S
Zn2280     O2291   1.991       .  S
Zn2281     O2282   2.003       .  S
Zn2281     O2289   2.010       .  S
Zn2281     O2292   1.973       .  S
Zn2281     O2293   2.101       .  S
O2283      C2295   1.258       .  A
O2284      C2296   1.284       .  A
O2285      C2297   1.277       .  A
O2286      C2295   1.286       .  A
O2287      C2297   1.259       .  A
O2288      C2296   1.277       .  A
O2289      C2298   1.273       .  A
O2290      C2299   1.279       .  A
O2291      C2298   1.273       .  A
O2292      C2299   1.272       .  A
O2293      C2300   1.270       .  A
O2294      C2300   1.255       .  A
C2297      C2345   1.461       .  S
C2298      C2460   1.457       .  S
C2299      C2574   1.456       .  S
C2300      C2548   1.468       .  S
Zn2301     O2305   1.959       .  S
Zn2302     O2305   1.978       .  S
Zn2302     O2307   2.022       .  S
Zn2302     O2677   2.099       .  S
Zn2302     O2313   2.129       .  S
Zn2303     O2305   1.984       .  S
Zn2303     O2308   2.007       .  S
Zn2303     O2311   1.993       .  S
Zn2303     O2314   2.095       .  S
Zn2304     O2305   1.879       .  S
Zn2304     O2312   1.914       .  S
Zn2304     O2315   1.931       .  S
O2306      C2318   1.275   1_655  A
O2307      C2319   1.277       .  A
O2309     Zn2670   2.099       .  S
O2310      C2320   1.273       .  A
O2311      C2319   1.273       .  A
O2312      C2321   1.257       .  A
O2313      C2322   1.283       .  A
O2314      C2321   1.274       .  A
O2315      C2322   1.261       .  A
O2316      C2323   1.261       .  A
O2317      C2323   1.275       .  A
C2319      C2438   1.451       .  S
C2320      C2369   1.456       .  S
C2321      C2411   1.460       .  S
C2323      C2503   1.454       .  S
Zn2324     O2328   1.957       .  S
Zn2324     O2329   2.017       .  S
Zn2325     O2328   1.917       .  S
Zn2325     O2330   2.013       .  S
Zn2325     O2332   1.966       .  S
Zn2325     O2336   2.018       .  S
Zn2326     O2328   1.968       .  S
Zn2327     O2328   1.932       .  S
Zn2327     O2335   1.967       .  S
Zn2327     O2338   2.023       .  S
Zn2327     O2339   1.934       .  S
O2329      C2341   1.273       .  A
O2330      C2342   1.272       .  A
O2332      C2341   1.270       .  A
O2336      C2345   1.273       .  A
O2337      C2344   1.282       .  A
O2338      C2345   1.266       .  A
O2340      C2346   1.273       .  A
C2344      C2366   1.474       .  S
C2346      C2504   1.446       .  S
Zn2347     O2351   1.933       .  S
Zn2347     O2352   1.994       .  S
Zn2347     O2356   2.024       .  S
Zn2347     O2363   1.968       .  S
Zn2348     O2351   1.987       .  S
Zn2348     O2353   2.082       .  S
Zn2348     O2355   2.110       .  S
Zn2348     O2359   2.084       .  S
Zn2349     O2351   1.942       .  S
Zn2349     O2354   2.022       .  S
Zn2349     O2357   1.958       .  S
Zn2349     O2360   1.941       .  S
Zn2350     O2351   1.972       .  S
Zn2350     O2358   2.029       .  S
Zn2350     O2361   2.018       .  S
Zn2350     O2362   2.023       .  S
O2352      C2364   1.270       .  A
O2353      C2365   1.278       .  A
O2354      C2366   1.269       .  A
O2355      C2364   1.285       .  A
O2356      C2366   1.275       .  A
O2357      C2365   1.266       .  A
O2358      C2367   1.270       .  A
O2359      C2368   1.285       .  A
O2360      C2367   1.265       .  A
O2361      C2368   1.275       .  A
O2362      C2369   1.274       .  A
O2363      C2369   1.268       .  A
C2365      C2553   1.461       .  S
C2368      C2391   1.475       .  S
Zn2370     O2374   1.978       .  S
Zn2370     O2743   1.997       .  S
Zn2370     O2747   2.081       .  S
Zn2370     O2386   1.995       .  S
Zn2371     O2374   1.970       .  S
Zn2371     O2744   2.068       .  S
Zn2371     O2746   2.008       .  S
Zn2371     O2382   2.011       .  S
Zn2372     O2742   1.881   1_554  S
Zn2372     O2377   1.917       .  S
Zn2372     O2380   1.919       .  S
Zn2372     O2751   1.936   1_554  S
Zn2373     O2374   1.974       .  S
Zn2373     O2381   2.121       .  S
Zn2373     O2384   2.083       .  S
Zn2373     O2385   2.018       .  S
O2374     Zn2740   1.881       .  S
O2375     Zn2738   1.997   1_554  S
O2375      C2387   1.272       .  A
O2376     Zn2739   2.068   1_554  S
O2376      C2388   1.276       .  A
O2377      C2389   1.257       .  A
O2378     Zn2739   2.008   1_554  S
O2378      C2387   1.272       .  A
O2379     Zn2738   2.081   1_554  S
O2379      C2389   1.272       .  A
O2380      C2388   1.261       .  A
O2381      C2390   1.281       .  A
O2382      C2391   1.274       .  A
O2383     Zn2740   1.936       .  S
O2383      C2390   1.261       .  A
O2384      C2391   1.283       .  A
O2385      C2392   1.276       .  A
O2386      C2392   1.274       .  A
C2387      C2551   1.452       .  S
C2389      C2458   1.457       .  S
C2392      C2482   1.450       .  S
Zn2393     O2397   1.934       .  S
Zn2393     O2398   1.991       .  S
Zn2393     O2402   1.988       .  S
Zn2393     O2409   1.949       .  S
Zn2394     O2397   1.947       .  S
Zn2394     O2399   1.974       .  S
Zn2394     O2401   2.022       .  S
Zn2394     O2405   1.954       .  S
Zn2395     O2397   1.975       .  S
Zn2395     O2400   2.109       .  S
Zn2395     O2403   2.070       .  S
Zn2395     O2406   2.088       .  S
Zn2396     O2397   1.970       .  S
Zn2396     O2404   1.984       .  S
Zn2396     O2407   2.025       .  S
Zn2396     O2408   2.031       .  S
O2398      C2410   1.270       .  A
O2399      C2411   1.268       .  A
O2400      C2412   1.286       .  A
O2401      C2410   1.269       .  A
O2402      C2412   1.267       .  A
O2403      C2411   1.278       .  A
O2404      C2413   1.270       .  A
O2405      C2414   1.267       .  A
O2406      C2413   1.285       .  A
O2407      C2414   1.270       .  A
O2408      C2415   1.275       .  A
O2409      C2415   1.266       .  A
C2410      C2576   1.466       .  S
C2413      C2435   1.468       .  S
C2414      C2484   1.452       .  S
C2415      C2552   1.454       .  S
Zn2416     O2420   1.987       .  S
Zn2416     O2789   2.118   1_554  S
Zn2416     O2425   2.018       .  S
Zn2416     O2432   2.003   1_554  S
Zn2417     O2420   1.829       .  S
Zn2417     O2422   1.894       .  S
Zn2417     O2792   1.896   1_554  S
Zn2417     O2796   1.918   1_554  S
Zn2418     O2420   2.017       .  S
Zn2418     O2423   2.064       .  S
Zn2418     O2426   2.197       .  S
Zn2418     O2429   2.041       .  S
Zn2419     O2420   1.987       .  S
Zn2419     O2427   1.974       .  S
Zn2419     O2798   2.100   1_554  S
Zn2419     O2799   2.001   1_554  S
O2421     Zn2784   2.118       .  S
O2421      C2433   1.277       .  A
O2422      C2434   1.260       .  A
O2423      C2435   1.283       .  A
O2424     Zn2785   1.896       .  S
O2424      C2433   1.259       .  A
O2425      C2435   1.276       .  A
O2426      C2434   1.283       .  A
O2427      C2436   1.274       .  A
O2428     Zn2785   1.918       .  S
O2428      C2437   1.261       .  A
O2429      C2436   1.279       .  A
O2430     Zn2787   2.100       .  S
O2430      C2437   1.270       .  A
O2431     Zn2787   2.001       .  S
O2431      C2438   1.273       .  A
O2432      C2806   1.272       .  A
C2433      C2483   1.476       .  S
C2434      C2526   1.505       .  S
C2438      O2800   1.272       .  A
Zn2439     O2443   1.949       .  S
Zn2439     O2444   2.026       .  S
Zn2439     O2448   1.970       .  S
Zn2439     O2455   1.949       .  S
Zn2440     O2443   1.933       .  S
Zn2440     O2445   1.996       .  S
Zn2440     O2447   1.996       .  S
Zn2440     O2451   1.961       .  S
Zn2441     O2443   1.972       .  S
Zn2441     O2446   2.061       .  S
Zn2441     O2449   2.105       .  S
Zn2441     O2452   2.086       .  S
Zn2442     O2443   1.971       .  S
Zn2442     O2450   1.984       .  S
Zn2442     O2453   2.031       .  S
Zn2442     O2454   2.023       .  S
O2444      C2456   1.269       .  A
O2445      C2457   1.268       .  A
O2446      C2458   1.277       .  A
O2447      C2456   1.272       .  A
O2448      C2458   1.267       .  A
O2449      C2457   1.286       .  A
O2450      C2459   1.270       .  A
O2451      C2460   1.268       .  A
O2452      C2459   1.285       .  A
O2453      C2460   1.275       .  A
O2454      C2461   1.270       .  A
O2455      C2461   1.267       .  A
C2459      C2481   1.468       .  S
C2461      C2525   1.450       .  S
Zn2462     O2466   2.015       .  S
Zn2462     O2467   2.195       .  S
Zn2462     O2471   2.063       .  S
Zn2462     O2478   2.041       .  S
Zn2463     O2466   1.829       .  S
Zn2463     O2468   1.902       .  S
Zn2463     O2470   1.898       .  S
Zn2463     O2474   1.921       .  S
Zn2464     O2466   1.987       .  S
Zn2464     O2469   2.019       .  S
Zn2464     O2472   2.121       .  S
Zn2464     O2475   2.005       .  S
Zn2465     O2466   1.989       .  S
Zn2465     O2473   1.996       .  S
Zn2465     O2476   2.093       .  S
Zn2465     O2477   1.967       .  S
O2467      C2479   1.282       .  A
O2468      C2480   1.260       .  A
O2469      C2481   1.277       .  A
O2470      C2479   1.261       .  A
O2471      C2481   1.283       .  A
O2472      C2480   1.277       .  A
O2473      C2482   1.272       .  A
O2474      C2483   1.262       .  A
O2475      C2482   1.273       .  A
O2476      C2483   1.269       .  A
O2477      C2484   1.272       .  A
O2478      C2484   1.279       .  A
C2480      C2527   1.478       .  S
Zn2485     O2489   1.967       .  S
Zn2485     O2490   2.037       .  S
Zn2485     O2494   2.027       .  S
Zn2485     O2501   1.972       .  S
Zn2486     O2489   1.945       .  S
Zn2486     O2491   2.019       .  S
Zn2486     O2493   1.947       .  S
Zn2486     O2497   1.980       .  S
Zn2487     O2489   1.928       .  S
Zn2487     O2492   1.951       .  S
Zn2487     O2495   1.991       .  S
Zn2487     O2498   2.000       .  S
Zn2488     O2489   1.964       .  S
Zn2488     O2496   2.094       .  S
Zn2488     O2499   2.067       .  S
Zn2488     O2500   2.116       .  S
O2490      C2502   1.273       .  A
O2491      C2503   1.266       .  A
O2492      C2504   1.268       .  A
O2493      C2502   1.267       .  A
O2494      C2504   1.274       .  A
O2495      C2503   1.269       .  A
O2496      C2505   1.286       .  A
O2497      C2506   1.269       .  A
O2498      C2505   1.268       .  A
O2499      C2506   1.280       .  A
O2500      C2507   1.288       .  A
O2501      C2507   1.267       .  A
C2506      C2575   1.473       .  S
C2507      C2529   1.474       .  S
Zn2508     O2512   1.994       .  S
Zn2508     O2513   1.955       .  S
Zn2508     O2885   2.102   1_554  S
Zn2508     O2892   2.006   1_554  S
Zn2509     O2512   2.016       .  S
Zn2509     O2514   2.200       .  S
Zn2509     O2516   2.045       .  S
Zn2509     O2520   2.077       .  S
Zn2510     O2512   1.828       .  S
Zn2510     O2883   1.919   1_554  S
Zn2510     O2518   1.893       .  S
Zn2510     O2889   1.908   1_554  S
Zn2511     O2512   1.973       .  S
Zn2511     O2887   2.124   1_554  S
Zn2511     O2522   2.029       .  S
Zn2511     O2523   1.984   1_554  S
O2513      C2525   1.271       .  A
O2514      C2526   1.284       .  A
O2515     Zn2878   1.919       .  S
O2515      C2527   1.262       .  A
O2516      C2525   1.279       .  A
O2517     Zn2876   2.102       .  S
O2517      C2527   1.271       .  A
O2518      C2526   1.260       .  A
O2519     Zn2879   2.124       .  S
O2519      C2528   1.277       .  A
O2520      C2529   1.284       .  A
O2521     Zn2878   1.908       .  S
O2521      C2528   1.261       .  A
O2522      C2529   1.278       .  A
O2523      C2898   1.273       .  A
O2524     Zn2876   2.006       .  S
O2524      C2530   1.271       .  A
C2530      O2891   1.273       .  A
C2530      C2572   1.454       .  S
Zn2531     O2535   1.862       .  S
Zn2531     O2540   1.941       .  S
Zn2531     O2547   1.924       .  S
Zn2532     O2535   1.978       .  S
Zn2532     O2543   1.987       .  S
Zn2533     O2535   1.975       .  S
Zn2533     O2538   2.137       .  S
Zn2533     O2541   2.088       .  S
Zn2533     O2544   2.034       .  S
Zn2534     O2535   1.984       .  S
Zn2534     O2542   1.986       .  S
Zn2534     O2545   2.003       .  S
Zn2534     O2546   2.089       .  S
O2536      C2548   1.263       .  A
O2537      C2549   1.275   1_655  A
O2538      C2550   1.283       .  A
O2539      C2548   1.273       .  A
O2540      C2550   1.261       .  A
O2542      C2551   1.273       .  A
O2543      C2552   1.273       .  A
O2544      C2551   1.278       .  A
O2545      C2552   1.271       .  A
O2546      C2553   1.273       .  A
O2547      C2553   1.258       .  A
C2549      C2941   1.476   1_454  S
Zn2554     O2558   1.978       .  S
Zn2555     O2558   1.927       .  S
Zn2555     O2560   1.942       .  S
Zn2555     O2562   1.986       .  S
Zn2555     O2566   2.017       .  S
Zn2556     O2558   1.967       .  S
Zn2556     O2561   2.006       .  S
Zn2556     O2564   2.040       .  S
Zn2556     O2567   2.033       .  S
Zn2557     O2558   1.946       .  S
Zn2557     O2565   1.962       .  S
Zn2557     O2568   2.021       .  S
Zn2557     O2569   1.961       .  S
O2560      C2572   1.267       .  A
O2561      C2573   1.273       .  A
O2562      C2571   1.268       .  A
O2564      C2572   1.277       .  A
O2565      C2574   1.268       .  A
O2566      C2575   1.272       .  A
O2567      C2574   1.272       .  A
O2568      C2575   1.268       .  A
O2570      C2576   1.278       .  A
C2573      C2917   1.476   1_655  S
Zn2577     O2581   1.991       .  S
Zn2577     O2582   1.965       .  S
Zn2577     O2586   2.009       .  S
Zn2577     O2593   2.111       .  S
Zn2578     O2581   2.017       .  S
Zn2578     O2583   2.079       .  S
Zn2578     O2585   2.048       .  S
Zn2578     O2589   2.202       .  S
Zn2579     O2581   1.975       .  S
Zn2579     O2587   2.025       .  S
Zn2579     O2590   2.116       .  S
Zn2580     O2581   1.828       .  S
Zn2580     O2588   1.904       .  S
Zn2580     O2591   1.889       .  S
Zn2580     O2592   1.917       .  S
O2582      C2594   1.273       .  A
O2583      C2595   1.284       .  A
O2584      C2596   1.272       .  A
O2585      C2594   1.280       .  A
O2587      C2595   1.277       .  A
O2588      C2597   1.260       .  A
O2589      C2598   1.284       .  A
O2590      C2597   1.276       .  A
O2591      C2598   1.260       .  A
O2592      C2599   1.261       .  A
O2593      C2599   1.272       .  A
C2594      C2870   1.453       .  S
C2596      C2641   1.453       .  S
C2597      C2805   1.478       .  S
C2598      C2847   1.505       .  S
C2599      C2896   1.481       .  S
Zn2600     O2604   1.943       .  S
Zn2600     O2605   1.979       .  S
Zn2600     O2609   1.947       .  S
Zn2600     O2616   2.013       .  S
Zn2601     O2604   1.968       .  S
Zn2601     O2606   2.116       .  S
Zn2601     O2608   2.071       .  S
Zn2601     O2612   2.097       .  S
Zn2602     O2604   1.969       .  S
Zn2602     O2610   1.974       .  S
Zn2602     O2613   2.032       .  S
Zn2603     O2604   1.928       .  S
Zn2603     O2611   1.944       .  S
Zn2603     O2614   2.002       .  S
Zn2603     O2615   1.987       .  S
O2605      C2617   1.270       .  A
O2606      C2618   1.289       .  A
O2607      C2619   1.273       .  A
O2608      C2617   1.280       .  A
O2610      C2618   1.268       .  A
O2611      C2620   1.267       .  A
O2612      C2621   1.286       .  A
O2613      C2620   1.274       .  A
O2614      C2621   1.269       .  A
O2615      C2622   1.268       .  A
O2616      C2622   1.266       .  A
C2617      C2640   1.474       .  S
C2619      C2804   1.453       .  S
C2620      C2735   1.445       .  S
C2621      C2825   1.488       .  S
C2622      C2756   1.450       .  S
Zn2623     O2628   2.029       .  S
Zn2623     O2632   1.953       .  S
Zn2623     O2639   1.949       .  S
Zn2624     O2627   1.921       .  S
Zn2624     O2629   1.951       .  S
Zn2624     O2635   1.984       .  S
Zn2625     O2627   1.967       .  S
Zn2625     O2630   2.024       .  S
Zn2625     O2633   2.026       .  S
Zn2625     O2636   2.023       .  S
Zn2626     O2627   1.979       .  S
Zn2626     O2634   2.101       .  S
Zn2626     O2637   2.093       .  S
Zn2626     O2638   2.074   1_556  S
O2628      C2640   1.270       .  A
O2629      C2641   1.268       .  A
O2631      C2640   1.272       .  A
O2632      C2642   1.267       .  A
O2633      C2641   1.274       .  A
O2634      C2643   1.287       .  A
O2635      C2644   1.268       .  A
O2636      C2643   1.275       .  A
O2637      C2644   1.282       .  A
O2639      C2645   1.266       .  A
C2642      C2709   1.446       .  S
C2643      C2664   1.482       .  S
C2644      C2758   1.470       .  S
C2645      C2824   1.469       .  S
Zn2646     O2650   1.862       .  S
Zn2646     O2651   1.916       .  S
Zn2646     O2655   1.926       .  S
Zn2646     O2662   1.869       .  S
Zn2647     O2650   1.987       .  S
Zn2647     O2652   2.088       .  S
Zn2647     O2654   2.154       .  S
Zn2647     O2658   2.044       .  S
Zn2648     O2650   1.961       .  S
Zn2648     O2653   2.087       .  S
Zn2648     O2656   2.035       .  S
Zn2648     O2659   1.991       .  S
Zn2649     O2650   2.003       .  S
Zn2649     O2657   2.010       .  S
Zn2649     O2660   1.973       .  S
Zn2649     O2661   2.101       .  S
O2651      C2663   1.258       .  A
O2652      C2664   1.284       .  A
O2653      C2665   1.277       .  A
O2654      C2663   1.286       .  A
O2655      C2665   1.259       .  A
O2656      C2664   1.277       .  A
O2657      C2666   1.273       .  A
O2658      C2667   1.279       .  A
O2659      C2666   1.273       .  A
O2660      C2667   1.272       .  A
O2661      C2668   1.270       .  A
O2662      C2668   1.255       .  A
C2665      C2713   1.461       .  S
C2666      C2828   1.457       .  S
C2667      C2942   1.456       .  S
C2668      C2916   1.468       .  S
Zn2669     O2673   1.959       .  S
Zn2670     O2673   1.978       .  S
Zn2670     O2675   2.022       .  S
Zn2670     O2681   2.129       .  S
Zn2671     O2673   1.984       .  S
Zn2671     O2676   2.007       .  S
Zn2671     O2679   1.993       .  S
Zn2671     O2682   2.095       .  S
Zn2672     O2673   1.879       .  S
Zn2672     O2680   1.914       .  S
Zn2672     O2683   1.931       .  S
O2674      C2686   1.275   1_655  A
O2675      C2687   1.277       .  A
O2678      C2688   1.273       .  A
O2679      C2687   1.273       .  A
O2680      C2689   1.257       .  A
O2681      C2690   1.283       .  A
O2682      C2689   1.274       .  A
O2683      C2690   1.261       .  A
O2684      C2691   1.261       .  A
O2685      C2691   1.275       .  A
C2687      C2806   1.451       .  S
C2688      C2737   1.456       .  S
C2689      C2779   1.460       .  S
C2691      C2871   1.454       .  S
Zn2692     O2696   1.957       .  S
Zn2692     O2697   2.017       .  S
Zn2693     O2696   1.917       .  S
Zn2693     O2698   2.013       .  S
Zn2693     O2700   1.966       .  S
Zn2693     O2704   2.018       .  S
Zn2694     O2696   1.968       .  S
Zn2695     O2696   1.932       .  S
Zn2695     O2703   1.967       .  S
Zn2695     O2706   2.023       .  S
Zn2695     O2707   1.934       .  S
O2697      C2709   1.273       .  A
O2698      C2710   1.272       .  A
O2700      C2709   1.270       .  A
O2704      C2713   1.273       .  A
O2705      C2712   1.282       .  A
O2706      C2713   1.266       .  A
O2708      C2714   1.273       .  A
C2712      C2734   1.474       .  S
C2714      C2872   1.446       .  S
Zn2715     O2719   1.933       .  S
Zn2715     O2720   1.994       .  S
Zn2715     O2724   2.024       .  S
Zn2715     O2731   1.968       .  S
Zn2716     O2719   1.987       .  S
Zn2716     O2721   2.082       .  S
Zn2716     O2723   2.110       .  S
Zn2716     O2727   2.084       .  S
Zn2717     O2719   1.942       .  S
Zn2717     O2722   2.022       .  S
Zn2717     O2725   1.958       .  S
Zn2717     O2728   1.941       .  S
Zn2718     O2719   1.972       .  S
Zn2718     O2726   2.029       .  S
Zn2718     O2729   2.018       .  S
Zn2718     O2730   2.023       .  S
O2720      C2732   1.270       .  A
O2721      C2733   1.278       .  A
O2722      C2734   1.269       .  A
O2723      C2732   1.285       .  A
O2724      C2734   1.275       .  A
O2725      C2733   1.266       .  A
O2726      C2735   1.270       .  A
O2727      C2736   1.285       .  A
O2728      C2735   1.265       .  A
O2729      C2736   1.275       .  A
O2730      C2737   1.274       .  A
O2731      C2737   1.268       .  A
C2733      C2921   1.461       .  S
C2736      C2759   1.475       .  S
Zn2738     O2742   1.978       .  S
Zn2738     O2754   1.995       .  S
Zn2739     O2742   1.970       .  S
Zn2739     O2750   2.011       .  S
Zn2740     O2745   1.917       .  S
Zn2740     O2748   1.919       .  S
Zn2741     O2742   1.974       .  S
Zn2741     O2749   2.121       .  S
Zn2741     O2752   2.084       .  S
Zn2741     O2753   2.018       .  S
O2743      C2755   1.272       .  A
O2744      C2756   1.276       .  A
O2745      C2757   1.257       .  A
O2746      C2755   1.272       .  A
O2747      C2757   1.272       .  A
O2748      C2756   1.261       .  A
O2749      C2758   1.281       .  A
O2750      C2759   1.274       .  A
O2751      C2758   1.261       .  A
O2752      C2759   1.283       .  A
O2753      C2760   1.276       .  A
O2754      C2760   1.274       .  A
C2755      C2919   1.452       .  S
C2757      C2826   1.457       .  S
C2760      C2850   1.450       .  S
Zn2761     O2765   1.934       .  S
Zn2761     O2766   1.991       .  S
Zn2761     O2770   1.988       .  S
Zn2761     O2777   1.949       .  S
Zn2762     O2765   1.947       .  S
Zn2762     O2767   1.974       .  S
Zn2762     O2769   2.022       .  S
Zn2762     O2773   1.954       .  S
Zn2763     O2765   1.975       .  S
Zn2763     O2768   2.109       .  S
Zn2763     O2771   2.070       .  S
Zn2763     O2774   2.088       .  S
Zn2764     O2765   1.970       .  S
Zn2764     O2772   1.984       .  S
Zn2764     O2775   2.025       .  S
Zn2764     O2776   2.031       .  S
O2766      C2778   1.270       .  A
O2767      C2779   1.268       .  A
O2768      C2780   1.286       .  A
O2769      C2778   1.269       .  A
O2770      C2780   1.267       .  A
O2771      C2779   1.278       .  A
O2772      C2781   1.270       .  A
O2773      C2782   1.267       .  A
O2774      C2781   1.285       .  A
O2775      C2782   1.270       .  A
O2776      C2783   1.275       .  A
O2777      C2783   1.266       .  A
C2778      C2944   1.466       .  S
C2781      C2803   1.468       .  S
C2782      C2852   1.452       .  S
C2783      C2920   1.454       .  S
Zn2784     O2788   1.987       .  S
Zn2784     O2793   2.018       .  S
Zn2784     O2800   2.003       .  S
Zn2785     O2788   1.829       .  S
Zn2785     O2790   1.894       .  S
Zn2786     O2788   2.017       .  S
Zn2786     O2791   2.064       .  S
Zn2786     O2794   2.197       .  S
Zn2786     O2797   2.041       .  S
Zn2787     O2788   1.987       .  S
Zn2787     O2795   1.974       .  S
O2789      C2801   1.277       .  A
O2790      C2802   1.260       .  A
O2791      C2803   1.283       .  A
O2792      C2801   1.259       .  A
O2793      C2803   1.276       .  A
O2794      C2802   1.283       .  A
O2795      C2804   1.274       .  A
O2796      C2805   1.261       .  A
O2797      C2804   1.279       .  A
O2798      C2805   1.270       .  A
O2799      C2806   1.273       .  A
C2801      C2851   1.476       .  S
C2802      C2894   1.505       .  S
Zn2807     O2811   1.949       .  S
Zn2807     O2812   2.026       .  S
Zn2807     O2816   1.970       .  S
Zn2807     O2823   1.949       .  S
Zn2808     O2811   1.933       .  S
Zn2808     O2813   1.996       .  S
Zn2808     O2815   1.996       .  S
Zn2808     O2819   1.961       .  S
Zn2809     O2811   1.972       .  S
Zn2809     O2814   2.061       .  S
Zn2809     O2817   2.105       .  S
Zn2809     O2820   2.086       .  S
Zn2810     O2811   1.971       .  S
Zn2810     O2818   1.984       .  S
Zn2810     O2821   2.031       .  S
Zn2810     O2822   2.023       .  S
O2812      C2824   1.269       .  A
O2813      C2825   1.268       .  A
O2814      C2826   1.277       .  A
O2815      C2824   1.272       .  A
O2816      C2826   1.267       .  A
O2817      C2825   1.286       .  A
O2818      C2827   1.270       .  A
O2819      C2828   1.268       .  A
O2820      C2827   1.285       .  A
O2821      C2828   1.275       .  A
O2822      C2829   1.270       .  A
O2823      C2829   1.267       .  A
C2827      C2849   1.468       .  S
C2829      C2893   1.450       .  S
Zn2830     O2834   2.015       .  S
Zn2830     O2835   2.195       .  S
Zn2830     O2839   2.063       .  S
Zn2830     O2846   2.041       .  S
Zn2831     O2834   1.829       .  S
Zn2831     O2836   1.902       .  S
Zn2831     O2838   1.898       .  S
Zn2831     O2842   1.921       .  S
Zn2832     O2834   1.987       .  S
Zn2832     O2837   2.019       .  S
Zn2832     O2840   2.121       .  S
Zn2832     O2843   2.005       .  S
Zn2833     O2834   1.989       .  S
Zn2833     O2841   1.996       .  S
Zn2833     O2844   2.093       .  S
Zn2833     O2845   1.967       .  S
O2835      C2847   1.282       .  A
O2836      C2848   1.260       .  A
O2837      C2849   1.277       .  A
O2838      C2847   1.261       .  A
O2839      C2849   1.283       .  A
O2840      C2848   1.277       .  A
O2841      C2850   1.272       .  A
O2842      C2851   1.262       .  A
O2843      C2850   1.273       .  A
O2844      C2851   1.269       .  A
O2845      C2852   1.272       .  A
O2846      C2852   1.279       .  A
C2848      C2895   1.478       .  S
Zn2853     O2857   1.967       .  S
Zn2853     O2858   2.037       .  S
Zn2853     O2862   2.027       .  S
Zn2853     O2869   1.972       .  S
Zn2854     O2857   1.945       .  S
Zn2854     O2859   2.019       .  S
Zn2854     O2861   1.947       .  S
Zn2854     O2865   1.980       .  S
Zn2855     O2857   1.928       .  S
Zn2855     O2860   1.951       .  S
Zn2855     O2863   1.991       .  S
Zn2855     O2866   2.000       .  S
Zn2856     O2857   1.964       .  S
Zn2856     O2864   2.094       .  S
Zn2856     O2867   2.067       .  S
Zn2856     O2868   2.116       .  S
O2858      C2870   1.273       .  A
O2859      C2871   1.266       .  A
O2860      C2872   1.268       .  A
O2861      C2870   1.267       .  A
O2862      C2872   1.274       .  A
O2863      C2871   1.269       .  A
O2864      C2873   1.286       .  A
O2865      C2874   1.269       .  A
O2866      C2873   1.268       .  A
O2867      C2874   1.280       .  A
O2868      C2875   1.288       .  A
O2869      C2875   1.267       .  A
C2874      C2943   1.473       .  S
C2875      C2897   1.474       .  S
Zn2876     O2880   1.994       .  S
Zn2876     O2881   1.955       .  S
Zn2877     O2880   2.016       .  S
Zn2877     O2882   2.200       .  S
Zn2877     O2884   2.045       .  S
Zn2877     O2888   2.077       .  S
Zn2878     O2880   1.828       .  S
Zn2878     O2886   1.893       .  S
Zn2879     O2880   1.973       .  S
Zn2879     O2890   2.029       .  S
Zn2879     O2891   1.984       .  S
O2881      C2893   1.271       .  A
O2882      C2894   1.284       .  A
O2883      C2895   1.262       .  A
O2884      C2893   1.279       .  A
O2885      C2895   1.271       .  A
O2886      C2894   1.260       .  A
O2887      C2896   1.277       .  A
O2888      C2897   1.284       .  A
O2889      C2896   1.261       .  A
O2890      C2897   1.278       .  A
O2892      C2898   1.271       .  A
C2898      C2940   1.454       .  S
Zn2899     O2903   1.862       .  S
Zn2899     O2908   1.941       .  S
Zn2899     O2915   1.924       .  S
Zn2900     O2903   1.978       .  S
Zn2900     O2911   1.987       .  S
Zn2901     O2903   1.975       .  S
Zn2901     O2906   2.137       .  S
Zn2901     O2909   2.088       .  S
Zn2901     O2912   2.034       .  S
Zn2902     O2903   1.984       .  S
Zn2902     O2910   1.986       .  S
Zn2902     O2913   2.003       .  S
Zn2902     O2914   2.089       .  S
O2904      C2916   1.263       .  A
O2905      C2917   1.275   1_655  A
O2906      C2918   1.283       .  A
O2907      C2916   1.273       .  A
O2908      C2918   1.261       .  A
O2910      C2919   1.273       .  A
O2911      C2920   1.273       .  A
O2912      C2919   1.278       .  A
O2913      C2920   1.271       .  A
O2914      C2921   1.273       .  A
O2915      C2921   1.258       .  A
Zn2922     O2926   1.978       .  S
Zn2923     O2926   1.927       .  S
Zn2923     O2928   1.942       .  S
Zn2923     O2930   1.986       .  S
Zn2923     O2934   2.017       .  S
Zn2924     O2926   1.967       .  S
Zn2924     O2929   2.006       .  S
Zn2924     O2932   2.040       .  S
Zn2924     O2935   2.033       .  S
Zn2925     O2926   1.946       .  S
Zn2925     O2933   1.962       .  S
Zn2925     O2936   2.021       .  S
Zn2925     O2937   1.961       .  S
O2928      C2940   1.267       .  A
O2929      C2941   1.273       .  A
O2930      C2939   1.268       .  A
O2932      C2940   1.277       .  A
O2933      C2942   1.268       .  A
O2934      C2943   1.272       .  A
O2935      C2942   1.272       .  A
O2936      C2943   1.268       .  A
O2938      C2944   1.278       .  A
