geometry optimzed in LAMMPS
_audit_creation_date              2020-12-01 
_audit_creation_method            'lammps2cif' 
_symmetry_space_group_name_H-M    'P1' 
_symmetry_Int_Tables_number       1 
_symmetry_cell_setting            triclinic 
loop_ 
_symmetry_equiv_pos_as_xyz 
  x,y,z 
_cell_length_a                    36.89976401 
_cell_length_b                    36.977448197451345 
_cell_length_c                    39.560467106260724 
_cell_angle_alpha                 87.52447573147082 
_cell_angle_beta                  86.42842859680677 
_cell_angle_gamma                 120.90767021657774 
loop_ 
_atom_site_label 
_atom_site_type_symbol 
_atom_site_fract_x 
_atom_site_fract_y 
_atom_site_fract_z 
_atom_site_charge 
O1          O  0.44085775  0.85863739  0.18139542    -0.85600
O2          O  0.51325933  0.92441970  0.14235288    -0.82600
C3          C  0.52775679  0.92545052  0.16982473     0.97900
O4          O  0.53675439  0.89749432  0.17684082    -0.82700
O5          O  0.52583406  0.81571910  0.18249963    -0.85300
C6          C  0.49474231  0.77819981  0.19194024     1.02400
O7          O  0.46137022  0.76307379  0.17657119    -0.78100
O8          O  0.40538593  0.79176620  0.17102492    -0.78300
C9          C  0.42236499  0.81980256  0.19185969     1.02300
O10         O  0.40462043  0.83534126  0.12136525    -0.85600
O11         O  0.48491708  0.88623324  0.08579978    -0.82700
C12         C  0.52344221  0.89842884  0.07670086     0.97900
O13         O  0.54834408  0.89746919  0.09800327    -0.82700
O14         O  0.54120178  0.82038169  0.10902095    -0.85300
C15         C  0.51397163  0.78748904  0.09636410     1.02400
O16         O  0.47482587  0.77065858  0.10461384    -0.78100
O17         O  0.41861093  0.79355450  0.09602858    -0.78300
C18         C  0.39906348  0.81300913  0.09745149     1.02300
Cr19       Cr  0.46201736  0.87339740  0.13318536     1.93700
Cr20       Cr  0.53459671  0.85720384  0.14147719     1.93200
Cr21       Cr  0.44213043  0.78311896  0.13731421     1.39100
O22         O  0.48032090  0.83714144  0.13718291    -1.23300
O23         O  0.46136806  0.56562723  0.17387344    -0.85600
O24         O  0.44487277  0.49993352  0.12921705    -0.82600
C25         C  0.43840209  0.48532027  0.15875830     0.97900
O26         O  0.40342646  0.47715205  0.17360354    -0.82700
O27         O  0.33603920  0.48914895  0.19120271    -0.85300
C28         C  0.32735133  0.51677487  0.19998453     1.02400
O29         O  0.34407138  0.55198900  0.18231108    -0.78100
O30         O  0.43259760  0.60580928  0.17507899    -0.78300
C31         C  0.44771659  0.58583325  0.19013866     1.02300
O32         O  0.48086305  0.61809116  0.11645831    -0.85600
O33         O  0.43879600  0.54421244  0.07881754    -0.82700
C34         C  0.40931813  0.50697586  0.07330777     0.97900
O35         O  0.38299236  0.47957112  0.09753526    -0.82700
O36         O  0.31765015  0.48964069  0.12065473    -0.85300
C37         C  0.31805298  0.52130600  0.10622172     1.02400
O38         O  0.34554528  0.55875875  0.11071840    -0.78100
O39         O  0.42608065  0.61690066  0.10081304    -0.78300
C40         C  0.46558335  0.63485315  0.09924221     1.02300
Cr41       Cr  0.45330536  0.55643739  0.12543785     1.93700
Cr42       Cr  0.36270796  0.48673611  0.14526661     1.93200
Cr43       Cr  0.38834873  0.58097168  0.14218824     1.39100
O44         O  0.40008384  0.54126107  0.13732270    -1.23300
O45         O  0.19856601  0.58369090  0.17117960    -0.85600
O46         O  0.13267393  0.59372027  0.17746865    -0.82600
C47         C  0.10426447  0.60055210  0.17086063     0.97900
O48         O  0.11546617  0.63430121  0.15266134    -0.82700
O49         O  0.19680059  0.69869045  0.17611829    -0.85300
C50         C  0.23686137  0.71900502  0.17856523     1.02400
O51         O  0.26126275  0.72109304  0.15307919    -0.78100
O52         O  0.25368096  0.64847586  0.17194204    -0.78300
C53         C  0.22805328  0.61250903  0.18632037     1.02300
O54         O  0.19002129  0.57867155  0.09824678    -0.85600
O55         O  0.12576721  0.59084314  0.10194434    -0.82700
C56         C  0.13516937  0.62039696  0.07871758     0.97900
O57         O  0.15487270  0.65882085  0.08540196    -0.82700
O58         O  0.22620673  0.72830389  0.10367554    -0.85300
C59         C  0.24996443  0.72485726  0.08095851     1.02400
O60         O  0.25126999  0.69174258  0.08229162    -0.78100
O61         O  0.25569857  0.62337645  0.10654576    -0.78300
C62         C  0.22814487  0.58965392  0.09515382     1.02300
Cr63       Cr  0.16361674  0.59021924  0.13710990     1.93700
Cr64       Cr  0.17457436  0.67826598  0.13043432     1.93200
Cr65       Cr  0.25212207  0.67000105  0.12774702     1.39100
O66         O  0.19665724  0.64545527  0.13198647    -1.23300
O67         O  0.45470081  0.81895143  0.34004850    -0.85600
O68         O  0.45494836  0.89050608  0.32193777    -0.82600
C69         C  0.44705135  0.91952189  0.32177018     0.97900
O70         O  0.40961662  0.91004302  0.33268373    -0.82700
O71         O  0.34465491  0.83141917  0.30634099    -0.85300
C72         C  0.32065082  0.79180948  0.30387987     1.02400
O73         O  0.31566209  0.76631627  0.32925022    -0.78100
O74         O  0.39205374  0.77284177  0.32382655    -0.78300
C75         C  0.43191622  0.79231724  0.31982151     1.02300
O76         O  0.43505475  0.82808911  0.41031161    -0.85600
O77         O  0.43578016  0.89941777  0.39312823    -0.82700
C78         C  0.40240841  0.89309433  0.41036351     0.97900
O79         O  0.36687302  0.87311305  0.39866675    -0.82700
O80         O  0.30083479  0.80329011  0.37581298    -0.85300
C81         C  0.29821093  0.77830054  0.40044218     1.02400
O82         O  0.32867997  0.77315672  0.40351004    -0.78100
O83         O  0.39723897  0.76541224  0.39289657    -0.78300
C84         C  0.42372159  0.78988932  0.41209147     1.02300
Cr85       Cr  0.44138343  0.85734526  0.36574644     1.93700
Cr86       Cr  0.35759680  0.85316219  0.35294775     1.93200
Cr87       Cr  0.35948491  0.77285402  0.36264162     1.39100
O88         O  0.38688839  0.82810634  0.35963496    -1.23300
O89         O  0.43526889  0.53724156  0.34992433    -0.85600
O90         O  0.50601572  0.56348333  0.38977122    -0.82600
C91         C  0.51749494  0.56773471  0.35933914     0.97900
O92         O  0.52437672  0.60196929  0.34446362    -0.82700
O93         O  0.51115535  0.66931835  0.32820712    -0.85300
C94         C  0.48028845  0.66953063  0.31560670     1.02400
O95         O  0.44334408  0.64764612  0.33123298    -0.78100
O96         O  0.39136708  0.56097672  0.34933691    -0.78300
C97         C  0.41240300  0.54712167  0.33392779     1.02300
O98         O  0.38678270  0.52343291  0.40948750    -0.85600
O99         O  0.46211807  0.57069296  0.44296525    -0.82700
C100        C  0.49941906  0.60117089  0.44683252     0.97900
O101        O  0.52511893  0.62534603  0.42093079    -0.82700
O102        O  0.50939627  0.68609610  0.39929832    -0.85300
C103        C  0.47662007  0.68713725  0.40958107     1.02400
O104        O  0.44012914  0.66067308  0.40182643    -0.78100
O105        O  0.38431122  0.57862978  0.41991480    -0.78300
C106        C  0.36772997  0.53916097  0.42348586     1.02300
Cr107      Cr  0.44798791  0.55185395  0.39716470     1.93700
Cr108      Cr  0.51441448  0.64262697  0.37365681     1.93200
Cr109      Cr  0.41785086  0.61138155  0.37593861     1.39100
O110        O  0.45999531  0.60338591  0.38266404    -1.23300
O111        O  0.20226902  0.61415268  0.35052238    -0.85600
O112        O  0.12482133  0.55093023  0.34815041    -0.82600
C113        C  0.10054414  0.51448000  0.34030280     0.97900
O114        O  0.10455453  0.48385384  0.35150468    -0.82700
O115        O  0.18361485  0.49100432  0.32830299    -0.85300
C116        C  0.22314111  0.50390230  0.32541773     1.02400
O117        O  0.24419309  0.52056166  0.35051175    -0.78100
O118        O  0.24690013  0.59310921  0.33479012    -0.78300
C119        C  0.22715876  0.61134620  0.32815740     1.02300
O120        O  0.18774723  0.58807202  0.42644321    -0.85600
O121        O  0.11228459  0.52516819  0.42039477    -0.82700
C122        C  0.11349791  0.49594435  0.43736557     0.97900
O123        O  0.12424637  0.47304836  0.42205983    -0.82700
O124        O  0.19342173  0.47235383  0.39978838    -0.85300
C125        C  0.21686161  0.49445422  0.42221820     1.02400
O126        O  0.22963610  0.53332035  0.42172351    -0.78100
O127        O  0.24931341  0.61656748  0.40004363    -0.78300
C128        C  0.22346014  0.61960825  0.42024659     1.02300
Cr129      Cr  0.15865221  0.56795168  0.38592620     1.93700
Cr130      Cr  0.15271422  0.48325714  0.37499437     1.93200
Cr131      Cr  0.23878325  0.56371650  0.37778840     1.39100
O132        O  0.18271127  0.53825940  0.37819539    -1.23300
O133        O  0.59873088  0.44261063  0.31383760    -0.85600
O134        O  0.53407814  0.43984954  0.36002141    -0.82600
C135        C  0.51229156  0.42443831  0.33646894     0.97900
O136        O  0.50420366  0.38821965  0.32955551    -0.82700
O137        O  0.51798684  0.31916542  0.32428334    -0.85300
C138        C  0.54710808  0.31079646  0.31657126     1.02400
O139        O  0.58040864  0.32780942  0.33223059    -0.78100
O140        O  0.63789850  0.41465267  0.32524032    -0.78300
C141        C  0.61836064  0.42401972  0.30446447     1.02300
O142        O  0.64690374  0.46559908  0.36758842    -0.85600
O143        O  0.57136169  0.43436294  0.41219998    -0.82700
C144        C  0.53388007  0.40645438  0.42512483     0.97900
O145        O  0.50592963  0.37828655  0.40739111    -0.82700
O146        O  0.51073379  0.30811400  0.39794609    -0.85300
C147        C  0.53892838  0.30667494  0.41343014     1.02400
O148        O  0.57783725  0.33198998  0.40491135    -0.78100
O149        O  0.63844839  0.41368816  0.39988413    -0.78300
C150        C  0.65872920  0.45279381  0.39147695     1.02300
Cr151      Cr  0.58672948  0.44188425  0.36313649     1.93700
Cr152      Cr  0.51322995  0.35128818  0.36454903     1.93200
Cr153      Cr  0.60634775  0.37286926  0.36534089     1.39100
O154        O  0.56808393  0.38724137  0.36464787    -1.23300
O155        O  0.88796153  0.44056739  0.32260185    -0.85600
O156        O  0.94619980  0.50988019  0.35962646    -0.82600
C157        C  0.95634245  0.51980272  0.32923538     0.97900
O158        O  0.93243846  0.52896339  0.31424214    -0.82700
O159        O  0.85501227  0.52350501  0.30025577    -0.85300
C160        C  0.81567407  0.49852511  0.29654241     1.02400
O161        O  0.79313136  0.46807656  0.31905347    -0.78100
O162        O  0.81714754  0.40746648  0.32687222    -0.78300
C163        C  0.85294475  0.42101842  0.30943954     1.02300
O164        O  0.85152078  0.39865863  0.38298697    -0.85600
O165        O  0.89273542  0.47747578  0.41423522    -0.82700
C166        C  0.90762748  0.51705661  0.41637469     0.97900
O167        O  0.91240005  0.54235026  0.39029853    -0.82700
O168        O  0.84110563  0.53866946  0.37064135    -0.85300
C169        C  0.80862226  0.51258995  0.39057483     1.02400
O170        O  0.79266835  0.47310763  0.39087216    -0.78100
O171        O  0.80130109  0.40687841  0.40203771    -0.78300
C172        C  0.81928770  0.38596311  0.40264372     1.02300
Cr173      Cr  0.89213068  0.45752740  0.36918726     1.93700
Cr174      Cr  0.88458815  0.53062845  0.34443505     1.93200
Cr175      Cr  0.80481275  0.44101204  0.35943209     1.39100
O176        O  0.85933708  0.47667994  0.35802341    -1.23300
O177        O  0.56502507  0.13255529  0.33718939    -0.85600
O178        O  0.58498258  0.08127588  0.37725243    -0.82600
C179        C  0.59400919  0.07672051  0.34771021     0.97900
O180        O  0.62971186  0.10613153  0.33375767    -0.82700
O181        O  0.70113605  0.19119734  0.31757760    -0.85300
C182        C  0.70480218  0.22594666  0.30583365     1.02400
O183        O  0.68309643  0.23904491  0.32098080    -0.78100
O184        O  0.59560787  0.20241716  0.33428600    -0.78300
C185        C  0.57940009  0.16774328  0.32003786     1.02300
O186        O  0.55381265  0.16476771  0.39512611    -0.85600
O187        O  0.59469013  0.12919676  0.42939200    -0.82700
C188        C  0.62321990  0.12075718  0.43500087     0.97900
O189        O  0.64741841  0.11967277  0.41034358    -0.82700
O190        O  0.71238615  0.19813486  0.39006556    -0.85300
C191        C  0.71438489  0.23089795  0.40067535     1.02400
O192        O  0.69099057  0.24403994  0.39113970    -0.78100
O193        O  0.61192787  0.21751033  0.40717792    -0.78300
C194        C  0.57244080  0.19596365  0.41174949     1.02300
Cr195      Cr  0.57825493  0.12978676  0.38372495     1.93700
Cr196      Cr  0.66965513  0.15393823  0.36295811     1.93200
Cr197      Cr  0.64401197  0.22191865  0.36345819     1.39100
O198        O  0.63197356  0.16960445  0.36971651    -1.23300
O199        O  0.57884406  0.39953222  0.16797506    -0.85600
O200        O  0.57219445  0.46484539  0.13610291    -0.82600
C201        C  0.58335364  0.48317574  0.16236983     0.97900
O202        O  0.62142291  0.49891474  0.16828027    -0.82700
O203        O  0.70105662  0.50900717  0.17051213    -0.85300
C204        C  0.71517094  0.48526653  0.17947451     1.02400
O205        O  0.70523244  0.45229384  0.16400040    -0.78100
O206        O  0.62583115  0.37943188  0.15746248    -0.78300
C207        C  0.59752435  0.38029616  0.17701247     1.02300
O208        O  0.58085428  0.37256140  0.10684994    -0.85600
O209        O  0.59745742  0.44909968  0.07505529    -0.82700
C210        C  0.61782152  0.48879909  0.06756733     0.97900
O211        O  0.63794255  0.51481881  0.08984841    -0.82700
O212        O  0.71605353  0.52692694  0.09678977    -0.85300
C213        C  0.73030234  0.50621153  0.08276108     1.02400
O214        O  0.71560113  0.46762193  0.09129953    -0.78100
O215        O  0.64314619  0.39599553  0.08259246    -0.78300
C216        C  0.60378792  0.37030135  0.08392127     1.02300
Cr217      Cr  0.58716922  0.42417088  0.12180842     1.93700
Cr218      Cr  0.66677364  0.50815592  0.13117698     1.93200
Cr219      Cr  0.67018953  0.42586894  0.12412456     1.39100
O220        O  0.64258738  0.45332951  0.12588801    -1.23300
O221        O  0.60637548  0.12970898  0.16853186    -0.85600
O222        O  0.53328745  0.07726548  0.13586361    -0.82600
C223        C  0.52229650  0.06879449  0.16658184     0.97900
O224        O  0.51217398  0.09344074  0.18053063    -0.82700
O225        O  0.51769848  0.17614836  0.18987383    -0.85300
C226        C  0.54902859  0.20664885  0.20285742     1.02400
O227        O  0.58630597  0.21948732  0.18986735    -0.78100
O228        O  0.64414993  0.19840094  0.16318247    -0.78300
C229        C  0.62689902  0.16398480  0.18186632     1.02300
O230        O  0.64490327  0.17252771  0.10486496    -0.85600
O231        O  0.56589227  0.13137677  0.07941747    -0.82700
C232        C  0.52656848  0.11686235  0.07773750     0.97900
O233        O  0.50132807  0.10972434  0.10457261    -0.82700
O234        O  0.51392425  0.18433622  0.11549445    -0.85300
C235        C  0.54397436  0.22194524  0.10714973     1.02400
O236        O  0.57587002  0.23985672  0.12367365    -0.78100
O237        O  0.63416264  0.22393566  0.09575882    -0.78300
C238        C  0.65543729  0.20691755  0.08906016     1.02300
Cr239      Cr  0.58689553  0.12995410  0.12320258     1.93700
Cr240      Cr  0.51426334  0.14151547  0.14813300     1.93200
Cr241      Cr  0.60766128  0.21676614  0.14296604     1.39100
O242        O  0.56927509  0.16370868  0.13809901    -1.23300
O243        O  0.90200465  0.47652205  0.15059918    -0.85600
O244        O  0.95398405  0.45685564  0.10771314    -0.82600
C245        C  0.95828590  0.45074202  0.13755315     0.97900
O246        O  0.92943120  0.41542257  0.15196253    -0.82700
O247        O  0.84611589  0.34402743  0.16770874    -0.85300
C248        C  0.81160114  0.34015942  0.18075698     1.02400
O249        O  0.79729125  0.36094785  0.16630228    -0.78100
O250        O  0.83265820  0.44802384  0.15195485    -0.78300
C251        C  0.86593986  0.46151838  0.16730018     1.02300
O252        O  0.87214014  0.49013350  0.09286662    -0.85600
O253        O  0.90769182  0.44904982  0.05607887    -0.82700
C254        C  0.91636931  0.42046760  0.05030823     0.97900
O255        O  0.91675378  0.39640682  0.07490414    -0.82700
O256        O  0.83867969  0.33213484  0.09559788    -0.85300
C257        C  0.80566467  0.32962744  0.08533961     1.02400
O258        O  0.79195203  0.35274313  0.09512336    -0.78100
O259        O  0.81713142  0.43343049  0.08061962    -0.78300
C260        C  0.83922444  0.47307046  0.07822009     1.02300
Cr261      Cr  0.90633567  0.46502171  0.10263762     1.93700
Cr262      Cr  0.88255284  0.37494132  0.12243381     1.93200
Cr263      Cr  0.81343330  0.39970709  0.12323932     1.39100
O264        O  0.86607285  0.41179643  0.11585943    -1.23300
O265        O  0.43865859  0.84218288  0.66562048    -0.85600
O266        O  0.35239607  0.79930956  0.67181483    -0.82600
C267        C  0.33167218  0.81381574  0.68608557     0.97900
O268        O  0.33332488  0.84664107  0.67217180    -0.82700
O269        O  0.39978532  0.93216546  0.65111241    -0.85300
C270        C  0.43445798  0.96113194  0.63554709     1.02400
O271        O  0.44070802  0.95304640  0.60686490    -0.78100
O272        O  0.46250859  0.91122537  0.65770348    -0.78300
C273        C  0.45155589  0.87835236  0.67688688     1.02300
O274        O  0.43421848  0.82170919  0.59292122    -0.85600
O275        O  0.35210714  0.79047211  0.60083341    -0.82700
C276        C  0.32534372  0.79888788  0.59061085     0.97900
O277        O  0.32166218  0.82886301  0.60117511    -0.82700
O278        O  0.38343630  0.90627109  0.57530190    -0.85300
C279        C  0.41122083  0.90648027  0.55327346     1.02400
O280        O  0.44153219  0.90216692  0.56230389    -0.78100
O281        O  0.48653282  0.87877434  0.60694323    -0.78300
C282        C  0.47331165  0.84494685  0.59362629     1.02300
Cr283      Cr  0.39510482  0.81676993  0.63219301     1.93700
Cr284      Cr  0.36227673  0.87877719  0.62503496     1.93200
Cr285      Cr  0.45500559  0.90884067  0.60917630     1.39100
O286        O  0.40272909  0.86669376  0.62209047    -1.23300
O287        O  0.42176871  0.64865314  0.67210939    -0.85600
O288        O  0.49556805  0.72248694  0.66361429    -0.82600
C289        C  0.51624615  0.72263833  0.68866609     0.97900
O290        O  0.53534582  0.70167336  0.68741194    -0.82700
O291        O  0.55184643  0.63466063  0.66406427    -0.85300
C292        C  0.52311657  0.60002807  0.68015801     1.02400
O293        O  0.48698453  0.59448330  0.68361174    -0.78100
O294        O  0.41352660  0.58650774  0.66718076    -0.78300
C295        C  0.41395192  0.61386896  0.68564817     1.02300
O296        O  0.41974019  0.63427518  0.60251020    -0.85600
O297        O  0.49921532  0.70568793  0.59025520    -0.82700
C298        C  0.53259459  0.73880059  0.59538218     0.97900
O299        O  0.55391431  0.73673817  0.61846135    -0.82700
O300        O  0.55478807  0.66688309  0.59551095    -0.85300
C301        C  0.53552274  0.62883464  0.58774334     1.02400
O302        O  0.51411459  0.59923436  0.61122494    -0.78100
O303        O  0.44163782  0.58988559  0.59695437    -0.78300
C304        C  0.41741936  0.60244050  0.58970801     1.02300
Cr305      Cr  0.46130343  0.67651479  0.63179423     1.93700
Cr306      Cr  0.54577155  0.68271197  0.64177692     1.93200
Cr307      Cr  0.46544525  0.59569277  0.64016502     1.39100
O308        O  0.49002854  0.65118479  0.63873361    -1.23300
O309        O  0.25831301  0.62468587  0.66762844    -0.85600
O310        O  0.27483709  0.56227399  0.65891062    -0.82600
C311        C  0.25176895  0.53672783  0.68464613     0.97900
O312        O  0.21135124  0.51537645  0.68303487    -0.82700
O313        O  0.12720036  0.49696709  0.65933204    -0.85300
C314        C  0.11755787  0.52309315  0.67086001     1.02400
O315        O  0.14633972  0.56062669  0.66979522    -0.78100
O316        O  0.21043507  0.63741700  0.64965303    -0.78300
C317        C  0.23398404  0.63880137  0.67222299     1.02300
O318        O  0.26451393  0.64575635  0.59724492    -0.85600
O319        O  0.26635317  0.57511226  0.58589336    -0.82700
C320        C  0.26243551  0.53944284  0.58797824     0.97900
O321        O  0.23735645  0.51186119  0.61196880    -0.82700
O322        O  0.16282943  0.50112930  0.59141955    -0.85300
C323        C  0.13988439  0.51461100  0.58062022     1.02400
O324        O  0.13292633  0.53884682  0.59821693    -0.78100
O325        O  0.20155788  0.61485699  0.57952346    -0.78300
C326        C  0.23876811  0.64553502  0.57746193     1.02300
Cr327      Cr  0.26262537  0.59950236  0.62714625     1.93700
Cr328      Cr  0.18581003  0.50969954  0.63687120     1.93200
Cr329      Cr  0.17466537  0.58622293  0.62479415     1.39100
O330        O  0.20750382  0.56510613  0.62986483    -1.23300
O331        O  0.41575110  0.83203047  0.83427244    -0.85600
O332        O  0.46848118  0.80177922  0.81790940    -0.82600
C333        C  0.50618761  0.81183130  0.80885567     0.97900
O334        O  0.53624059  0.83853286  0.82521569    -0.82700
O335        O  0.55234261  0.92419657  0.83253688    -0.85300
C336        C  0.54493111  0.95223602  0.84253885     1.02400
O337        O  0.52672281  0.94542460  0.87170833    -0.78100
O338        O  0.45782172  0.90109961  0.83607155    -0.78300
C339        C  0.43599431  0.86944724  0.81992036     1.02300
O340        O  0.40817986  0.79984487  0.90538393    -0.85600
O341        O  0.46324914  0.77673635  0.88794069    -0.82700
C342        C  0.49506365  0.78892598  0.90452423     0.97900
O343        O  0.52773041  0.82553811  0.89901883    -0.82700
O344        O  0.54854621  0.90493028  0.90910291    -0.85300
C345        C  0.52197204  0.90110781  0.93368007     1.02400
O346        O  0.48405806  0.88994080  0.92866350    -0.78100
O347        O  0.40848997  0.85765388  0.89598057    -0.78300
C348        C  0.39008283  0.82043732  0.90897387     1.02300
Cr349      Cr  0.44204008  0.80666795  0.86187157     1.93700
Cr350      Cr  0.53772034  0.87283268  0.86605447     1.93200
Cr351      Cr  0.46997210  0.89538916  0.88247577     1.39100
O352        O  0.48336959  0.85744093  0.86995696    -1.23300
O353        O  0.44113697  0.63190036  0.83855661    -0.85600
O354        O  0.36042356  0.57060700  0.82111818    -0.82600
C355        C  0.34635205  0.53719976  0.80556461     0.97900
O356        O  0.35290856  0.50792673  0.81666239    -0.82700
O357        O  0.43002032  0.50694382  0.83081917    -0.85300
C358        C  0.46408922  0.51837447  0.84462082     1.02400
O359        O  0.46313466  0.52730891  0.87391225    -0.78100
O360        O  0.47772760  0.60022710  0.83188489    -0.78300
C361        C  0.46186232  0.62072832  0.81931631     1.02300
O362        O  0.40652575  0.61211984  0.91009638    -0.85600
O363        O  0.33346973  0.55103124  0.89194672    -0.82700
C364        C  0.31354706  0.51197011  0.90077666     0.97900
O365        O  0.32497125  0.48755748  0.88932681    -0.82700
O366        O  0.39356582  0.48695081  0.90740046    -0.85300
C367        C  0.41112304  0.51089379  0.93159667     1.02400
O368        O  0.43560059  0.55081337  0.92611413    -0.78100
O369        O  0.47070236  0.63168007  0.89321718    -0.78300
C370        C  0.44544901  0.63569056  0.91276197     1.02300
Cr371      Cr  0.38682610  0.58924548  0.86531473     1.93700
Cr372      Cr  0.37786971  0.50081041  0.86097068     1.93200
Cr373      Cr  0.45874692  0.57655085  0.88010412     1.39100
O374        O  0.40614868  0.55481279  0.86884912    -1.23300
O375        O  0.22611652  0.59991224  0.82659732    -0.85600
O376        O  0.25156873  0.68497191  0.82527893    -0.82600
C377        C  0.23209831  0.69965276  0.80974781     0.97900
O378        O  0.19342422  0.68662804  0.81972471    -0.82700
O379        O  0.11452457  0.61177856  0.83361886    -0.85300
C380        C  0.08860024  0.57415290  0.84525970     1.02400
O381        O  0.09475169  0.56525860  0.87365262    -0.78100
O382        O  0.15695815  0.56743969  0.82255656    -0.78300
C383        C  0.19517090  0.58884747  0.80858189     1.02300
O384        O  0.23242271  0.59926906  0.90080648    -0.85600
O385        O  0.24905532  0.67847606  0.89718829    -0.82700
C386        C  0.23435044  0.70172148  0.90381183     0.97900
O387        O  0.20194466  0.69768201  0.89102185    -0.82700
O388        O  0.12849420  0.62302333  0.91220460    -0.85300
C389        C  0.13303817  0.59784971  0.93324858     1.02400
O390        O  0.14298650  0.57158263  0.92233173    -0.78100
O391        O  0.18749050  0.54603937  0.87667920    -0.78300
C392        C  0.21419420  0.56034922  0.89753896     1.02300
Cr393      Cr  0.23660441  0.63938192  0.86255136     1.93700
Cr394      Cr  0.15977350  0.65218691  0.86440239     1.93200
Cr395      Cr  0.14744704  0.56531972  0.87317910     1.39100
O396        O  0.18239893  0.62054267  0.86715080    -1.23300
O397        O  0.64405832  0.45601476  0.66439452    -0.85600
O398        O  0.59554664  0.36953246  0.68309254    -0.82600
C399        C  0.55852122  0.34430175  0.69743783     0.97900
O400        O  0.52653375  0.34259756  0.68485310    -0.82700
O401        O  0.50864261  0.40926645  0.67098553    -0.85300
C402        C  0.51423115  0.44338966  0.65663992     1.02400
O403        O  0.52782628  0.44974035  0.62656171    -0.78100
O404        O  0.59637185  0.47457628  0.66880648    -0.78300
C405        C  0.62076540  0.46504715  0.68256017     1.02300
O406        O  0.64772404  0.43716412  0.59391237    -0.85600
O407        O  0.59779632  0.35593041  0.61321706    -0.82700
C408        C  0.56258736  0.33102120  0.60275622     0.97900
O409        O  0.52899100  0.33071813  0.61246672    -0.82700
O410        O  0.51144652  0.38998875  0.59367481    -0.85300
C411        C  0.53807817  0.41589864  0.56884484     1.02400
O412        O  0.57438380  0.44706976  0.57400089    -0.78100
O413        O  0.64895674  0.49311754  0.60783374    -0.78300
C414        C  0.66636578  0.47668930  0.59193799     1.02300
Cr415      Cr  0.61851561  0.40520686  0.63851530     1.93700
Cr416      Cr  0.52165062  0.37107587  0.64051651     1.93200
Cr417      Cr  0.58662182  0.46351965  0.62025847     1.39100
O418        O  0.57543335  0.41169105  0.63274786    -1.23300
O419        O  0.84704802  0.41417594  0.65716640    -0.85600
O420        O  0.81299745  0.46504726  0.66727978    -0.82600
C421        C  0.83024234  0.49740595  0.68413887     0.97900
O422        O  0.86702290  0.52865857  0.67350654    -0.82700
O423        O  0.94903102  0.54484061  0.65674893    -0.85300
C424        C  0.97741063  0.53962117  0.64274027     1.02400
O425        O  0.97214285  0.53124622  0.61326053    -0.78100
O426        O  0.91572030  0.45765502  0.66166142    -0.78300
C427        C  0.87798218  0.43211836  0.67520142     1.02300
O428        O  0.83789040  0.41751751  0.58521260    -0.85600
O429        O  0.81260463  0.47400213  0.59474086    -0.82700
C430        C  0.82356098  0.51243132  0.59098970     0.97900
O431        O  0.85549615  0.54103786  0.60388366    -0.82700
O432        O  0.93218923  0.55389781  0.57867232    -0.85300
C433        C  0.93144765  0.52902936  0.55606107     1.02400
O434        O  0.92587592  0.49256415  0.56437824    -0.78100
O435        O  0.88916694  0.41435657  0.60479287    -0.78300
C436        C  0.85797742  0.39861679  0.58804804     1.02300
Cr437      Cr  0.83097421  0.44540077  0.62578435     1.93700
Cr438      Cr  0.90123932  0.53967396  0.62763835     1.93200
Cr439      Cr  0.92357024  0.47442814  0.61182012     1.39100
O440        O  0.88385758  0.48668629  0.62118889    -1.23300
O441        O  0.66055554  0.24655900  0.67206594    -0.85600
O442        O  0.73339130  0.24719817  0.66155480    -0.82600
C443        C  0.72659155  0.22030712  0.68631829     0.97900
O444        O  0.70029381  0.18111013  0.68336497    -0.82700
O445        O  0.63078781  0.10551693  0.65547935    -0.85300
C446        C  0.59528198  0.09940336  0.66820326     1.02400
O447        O  0.59235313  0.13104574  0.67120398    -0.78100
O448        O  0.59588202  0.20368945  0.65805311    -0.78300
C449        C  0.62097486  0.22694898  0.67896177     1.02300
O450        O  0.65224068  0.25782872  0.60334358    -0.85600
O451        O  0.71850483  0.24521209  0.58807072    -0.82700
C452        C  0.74738197  0.23731978  0.59073650     0.97900
O453        O  0.74211393  0.20927674  0.61371565    -0.82700
O454        O  0.67272431  0.14400379  0.58960117    -0.85300
C455        C  0.63657075  0.12720127  0.57861930     1.02400
O456        O  0.60487532  0.12273754  0.59739779    -0.78100
O457        O  0.61036603  0.19649570  0.58532797    -0.78300
C458        C  0.62321689  0.23489909  0.58518722     1.02300
Cr459      Cr  0.68975476  0.24589239  0.63063573     1.93700
Cr460      Cr  0.68472458  0.16145027  0.63616331     1.93200
Cr461      Cr  0.60427758  0.16495451  0.62837831     1.39100
O462        O  0.65908804  0.19061484  0.63212195    -1.23300
O463        O  0.63964585  0.39960791  0.82546420    -0.85600
O464        O  0.72014649  0.45974392  0.83553166    -0.82600
C465        C  0.72831390  0.48804435  0.81161139     0.97900
O466        O  0.71145358  0.51073366  0.81497593    -0.82700
O467        O  0.64903097  0.53405806  0.84227261    -0.85300
C468        C  0.61402468  0.51213491  0.82914489     1.02400
O469        O  0.59902010  0.47351071  0.82946815    -0.78100
O470        O  0.58000862  0.39529406  0.84225618    -0.78300
C471        C  0.60629037  0.39825701  0.81835805     1.02300
O472        O  0.61426180  0.37576424  0.89520117    -0.85600
O473        O  0.69016707  0.44309200  0.90866544    -0.82700
C474        C  0.72510598  0.47717376  0.90659307     0.97900
O475        O  0.73266696  0.50675667  0.88420550    -0.82700
O476        O  0.67087555  0.52054200  0.90865142    -0.85300
C477        C  0.63367903  0.50753973  0.92157671     1.02400
O478        O  0.60241775  0.48752947  0.90389468    -0.78100
O479        O  0.58268320  0.40772768  0.91489883    -0.78300
C480        C  0.58661776  0.37618878  0.91537320     1.02300
Cr481      Cr  0.66521054  0.42217280  0.86674302     1.93700
Cr482      Cr  0.68825515  0.51463608  0.86201863     1.93200
Cr483      Cr  0.59458471  0.44250863  0.87206218     1.39100
O484        O  0.64909645  0.45970951  0.86648626    -1.23300
O485        O  0.63992590  0.22503093  0.83482556    -0.85600
O486        O  0.58326060  0.25324622  0.83723355    -0.82600
C487        C  0.55437293  0.23571621  0.81721931     0.97900
O488        O  0.52722475  0.19599066  0.82273914    -0.82700
O489        O  0.51666727  0.11407404  0.83437093    -0.85300
C490        C  0.52384648  0.08675413  0.84743698     1.02400
O491        O  0.53037750  0.09165363  0.87701167    -0.78100
O492        O  0.60120047  0.15617308  0.82782051    -0.78300
C493        C  0.62182064  0.19492149  0.81556015     1.02300
O494        O  0.63853945  0.22391022  0.91048858    -0.85600
O495        O  0.57479915  0.24010627  0.91014980    -0.82700
C496        C  0.53568841  0.22744328  0.91290832     0.97900
O497        O  0.50999798  0.19976047  0.89461285    -0.82700
O498        O  0.50313612  0.12469191  0.91403335    -0.85300
C499        C  0.52843850  0.12474195  0.93565652     1.02400
O500        O  0.56690156  0.13526808  0.92648533    -0.78100
O501        O  0.64530120  0.18032487  0.88180160    -0.78300
C502        C  0.65732735  0.20413300  0.90473325     1.02300
Cr503      Cr  0.60717883  0.23264112  0.87316824     1.93700
Cr504      Cr  0.51625501  0.15848609  0.86668877     1.93200
Cr505      Cr  0.58558266  0.14279860  0.87791380     1.39100
O506        O  0.56930263  0.17923984  0.87339778    -1.23300
O507        O  0.79490447  0.37075517  0.82431358    -0.85600
O508        O  0.78966408  0.29579886  0.83506193    -0.82600
C509        C  0.81339577  0.29863574  0.80873022     0.97900
O510        O  0.85370053  0.32163674  0.80929424    -0.82700
O511        O  0.93517059  0.38981473  0.82966435    -0.85300
C512        C  0.94290589  0.42488252  0.81519930     1.02400
O513        O  0.91306997  0.43148401  0.81511738    -0.78100
O514        O  0.84369905  0.43412704  0.83547991    -0.78300
C515        C  0.82069635  0.40899782  0.81466632     1.02300
O516        O  0.79442329  0.38527550  0.89322904    -0.85600
O517        O  0.80103977  0.31613153  0.90747290    -0.82700
C518        C  0.80774731  0.28629239  0.90585675     0.97900
O519        O  0.83137277  0.28689510  0.88066989    -0.82700
O520        O  0.90187426  0.35609581  0.89901709    -0.85300
C521        C  0.92112608  0.39347634  0.90782851     1.02400
O522        O  0.92909563  0.42391131  0.88639708    -0.78100
O523        O  0.85955092  0.42538163  0.90530683    -0.78300
C524        C  0.82142248  0.41456463  0.90927721     1.02300
Cr525      Cr  0.79836020  0.34321103  0.86530097     1.93700
Cr526      Cr  0.87929172  0.34050119  0.85412401     1.93200
Cr527      Cr  0.88466550  0.42547889  0.86022321     1.39100
O528        O  0.85416084  0.37011869  0.85930194    -1.23300
C529        C  0.69471568  0.20989959  0.92108357    -0.05700
C530        C  0.71089564  0.23672606  0.94718593    -0.33100
C531        C  0.75321122  0.25268324  0.95359284     0.36100
C532        C  0.77980738  0.24808577  0.92908005    -0.06100
C533        C  0.76120595  0.21086599  0.91287624    -0.33000
C534        C  0.71846072  0.19240379  0.90739407     0.36000
H535        H  0.69239633  0.24793585  0.96034058     0.16400
O536        O  0.77077985  0.28320884  0.97585040    -0.60500
H537        H  0.78085837  0.20266983  0.89749576     0.16400
O538        O  0.70191758  0.16076627  0.88584058    -0.60600
H539        H  0.71363625  0.17507063  0.86260330     0.43400
H540        H  0.78213908  0.27195929  0.99269730     0.43300
C541        C  0.75851759  0.47678382  0.92499771    -0.05700
C542        C  0.80042679  0.50051258  0.90996979    -0.33100
C543        C  0.82634511  0.48323474  0.91057848     0.36100
C544        C  0.80963413  0.44197712  0.92607233    -0.06100
C545        C  0.77226267  0.42342846  0.94784173    -0.33000
C546        C  0.74681802  0.44122572  0.94804901     0.36000
H547        H  0.81061995  0.52857455  0.89304570     0.16400
O548        O  0.86391468  0.50278737  0.89008295    -0.60500
H549        H  0.75996000  0.39238042  0.96088375     0.16400
O550        O  0.70764693  0.41996969  0.96648411    -0.60600
H551        H  0.69118315  0.39243899  0.95664152     0.43400
H552        H  0.88607729  0.51858172  0.90547686     0.43300
C553        C  0.55442387  0.33663016  0.93456705    -0.05700
C554        C  0.56753039  0.31725788  0.95793584    -0.33100
C555        C  0.54971566  0.27347246  0.95946177     0.36100
C556        C  0.52262671  0.25091804  0.93464115    -0.06100
C557        C  0.50087330  0.26798331  0.91926932    -0.33000
C558        C  0.51689880  0.31143669  0.91918973     0.36000
H559        H  0.59540925  0.33626539  0.97100646     0.16400
O560        O  0.56735302  0.25555114  0.97832752    -0.60500
H561        H  0.47800827  0.25038204  0.90157142     0.16400
O562        O  0.50194571  0.32984641  0.89776288    -0.60600
H563        H  0.47967908  0.33122782  0.91199703     0.43400
H564        H  0.54435043  0.23571154  0.99586712     0.43300
C565        C  0.60635933  0.22586391  0.71440607    -0.05700
C566        C  0.63597345  0.25760087  0.73304048    -0.33100
C567        C  0.64337243  0.24727579  0.76510801     0.36100
C568        C  0.61787945  0.20561978  0.78035292    -0.06100
C569        C  0.58353078  0.17585086  0.76381350    -0.33000
C570        C  0.57694878  0.18616569  0.73136940     0.36000
H571        H  0.65813323  0.28886172  0.72061828     0.16400
O572        O  0.67662893  0.27764433  0.78070838    -0.60500
H573        H  0.56199613  0.14426490  0.77573416     0.16400
O574        O  0.54501761  0.15552753  0.71500277    -0.60600
H575        H  0.52169364  0.16145549  0.71739359     0.43400
H576        H  0.70273520  0.28319028  0.76708104     0.43300
C577        C  0.75006503  0.23581815  0.71817910    -0.05700
C578        C  0.79361918  0.26740351  0.71560549    -0.33100
C579        C  0.81508478  0.28585469  0.74462307     0.36100
C580        C  0.79302692  0.27484668  0.77764627    -0.06100
C581        C  0.74976912  0.24195360  0.78027239    -0.33000
C582        C  0.72896953  0.22205646  0.75142164     0.36000
H583        H  0.81123999  0.27851624  0.69068761     0.16400
O584        O  0.85723699  0.31673154  0.73984681    -0.60500
H585        H  0.73151610  0.23175027  0.80493634     0.16400
O586        O  0.68707027  0.19060289  0.75594856    -0.60600
H587        H  0.68720014  0.16397938  0.75961368     0.43400
H588        H  0.87266173  0.30129950  0.73941213     0.43300
C589        C  0.75627143  0.49213159  0.77940493    -0.05700
C590        C  0.78127615  0.53047708  0.75850835    -0.33100
C591        C  0.80642504  0.53332116  0.72834898     0.36100
C592        C  0.80614472  0.49717080  0.71723963    -0.06100
C593        C  0.78025700  0.45890598  0.73764014    -0.33000
C594        C  0.75705152  0.45640013  0.76848149     0.36000
H595        H  0.78165794  0.55859087  0.76567570     0.16400
O596        O  0.83018728  0.57152053  0.70944778    -0.60500
H597        H  0.77826059  0.43032515  0.72978896     0.16400
O598        O  0.73448940  0.41817306  0.78757809    -0.60600
H599        H  0.70992826  0.40025866  0.77486023     0.43400
H600        H  0.81154741  0.57159208  0.69246500     0.43300
C601        C  0.86683384  0.42642069  0.71172663    -0.05700
C602        C  0.88350023  0.46190208  0.73073001    -0.33100
C603        C  0.86504948  0.45886763  0.76358391     0.36100
C604        C  0.83088792  0.41951547  0.77789847    -0.06100
C605        C  0.81278519  0.38531494  0.75768464    -0.33000
C606        C  0.83033124  0.38855539  0.72512064     0.36000
H607        H  0.90892209  0.49244474  0.71933310     0.16400
O608        O  0.87813897  0.49481976  0.78016422    -0.60500
H609        H  0.78554894  0.35492692  0.76738839     0.16400
O610        O  0.81113141  0.35448759  0.70613226    -0.60600
H611        H  0.78408734  0.35204812  0.70081007     0.43400
H612        H  0.89757454  0.49519627  0.79641446     0.43300
C613        C  0.84244785  0.35590036  0.57701354    -0.05700
C614        C  0.81583595  0.34141269  0.55086361    -0.33100
C615        C  0.79038008  0.29784938  0.54812184     0.36100
C616        C  0.78925346  0.26920607  0.57367749    -0.06100
C617        C  0.82301240  0.28363565  0.59383241    -0.33000
C618        C  0.84948575  0.32700777  0.59597945     0.36000
H619        H  0.81212197  0.36335107  0.53452984     0.16400
O620        O  0.76152153  0.28343418  0.52432198    -0.60500
H621        H  0.82397187  0.26199343  0.61262249     0.16400
O622        O  0.87722402  0.34003643  0.62054668    -0.60600
H623        H  0.90348161  0.34263415  0.60963030     0.43400
H624        H  0.74170047  0.29341807  0.52996428     0.43300
C625        C  0.55390220  0.26329324  0.78687648    -0.05700
C626        C  0.51842083  0.24999224  0.76789339    -0.33100
C627        C  0.51822662  0.27613032  0.74012595     0.36100
C628        C  0.55444932  0.31645566  0.72933943    -0.06100
C629        C  0.58985554  0.32912359  0.74796989    -0.33000
C630        C  0.58959024  0.30421095  0.77646237     0.36000
H631        H  0.49034070  0.21914586  0.77471829     0.16400
O632        O  0.48293041  0.26081421  0.72276456    -0.60500
H633        H  0.61864151  0.35914203  0.74040624     0.16400
O634        O  0.62474228  0.32065821  0.79422466    -0.60600
H635        H  0.64919262  0.32856458  0.77735843     0.43400
H636        H  0.46485934  0.26985550  0.73471183     0.43300
C637        C  0.60655387  0.41327227  0.78317569    -0.05700
C638        C  0.64647951  0.43793152  0.76458970    -0.33100
C639        C  0.65196055  0.45990340  0.73379326     0.36100
C640        C  0.61652990  0.45521082  0.71918215    -0.06100
C641        C  0.57581367  0.42930273  0.73674245    -0.33000
C642        C  0.57071206  0.40886410  0.76902498     0.26400
H643        H  0.67407966  0.43998699  0.77368508     0.16400
O644        O  0.69209050  0.48472369  0.71736467    -0.60500
H645        H  0.54787321  0.42350526  0.72493566     0.16400
O646        O  0.53077169  0.38259051  0.78515620    -0.60600
H647        H  0.52600696  0.39992720  0.80120042     0.43400
H648        H  0.70057749  0.46477379  0.70946457     0.43300
C649        C  0.59780875  0.25080926  0.57096570    -0.05700
C650        C  0.61834832  0.29123859  0.55394333    -0.33100
C651        C  0.60028517  0.31627400  0.55724579     0.36100
C652        C  0.56311251  0.30129268  0.57966120    -0.06100
C653        C  0.53823066  0.25810686  0.58986953    -0.33000
C654        C  0.55524219  0.23234665  0.58498665     0.36000
H655        H  0.65042470  0.30521088  0.54191116     0.16400
O656        O  0.62251124  0.35761239  0.54346924    -0.60500
H657        H  0.50909067  0.24589895  0.60636521     0.16400
O658        O  0.53346380  0.19181744  0.60024923    -0.60600
H659        H  0.52176352  0.17348844  0.58142895     0.43400
H660        H  0.64844645  0.37212584  0.55557060     0.43300
C661        C  0.71058628  0.50210596  0.57672059    -0.05700
C662        C  0.72537321  0.48382814  0.55356391    -0.33100
C663        C  0.76744098  0.49401561  0.55220223     0.36100
C664        C  0.79430868  0.52198850  0.57480513    -0.06100
C665        C  0.78227830  0.54747869  0.59140861    -0.33000
C666        C  0.74025209  0.53772496  0.59241732     0.36000
H667        H  0.70321940  0.45766264  0.54008194     0.16400
O668        O  0.77951418  0.47080430  0.53361466    -0.60500
H669        H  0.80301770  0.57004675  0.60813641     0.16400
O670        O  0.72726949  0.55800420  0.61380306    -0.60600
H671        H  0.72548303  0.57907402  0.59876238     0.43400
H672        H  0.79915363  0.49066488  0.51432065     0.43300
C673        C  0.05891059  0.53803627  0.82606779    -0.05700
C674        C  0.03030045  0.54024412  0.80571972    -0.33100
C675        C  0.99510320  0.50279374  0.79638726     0.36100
C676        C  0.98721978  0.46236737  0.80854550    -0.06100
C677        C  0.01950738  0.46087949  0.82398639    -0.33000
C678        C  0.05496212  0.49794689  0.83264264     0.36000
H679        H  0.03333174  0.57048525  0.79917044     0.16400
O680        O  0.96682750  0.50608947  0.77768183    -0.60500
H681        H  0.01534425  0.43069662  0.83279154     0.16400
O682        O  0.08358536  0.49403440  0.85062157    -0.60600
H683        H  0.09870583  0.48549120  0.83424766     0.43400
H684        H  0.97796256  0.50897353  0.75363594     0.43300
C685        C  0.50661591  0.52680356  0.82962919    -0.05700
C686        C  0.51116657  0.50204931  0.80602963    -0.33100
C687        C  0.54992223  0.50291059  0.80083665     0.36100
C688        C  0.58440283  0.52710660  0.82043310    -0.06100
C689        C  0.58166100  0.55607725  0.84021565    -0.33000
C690        C  0.54387093  0.55668378  0.84440520     0.36000
H691        H  0.48414101  0.48003395  0.79332929     0.16400
O692        O  0.55269608  0.47750932  0.77813549    -0.60500
H693        H  0.60729746  0.57551667  0.85525731     0.16400
O694        O  0.54266727  0.58434742  0.86581941    -0.60600
H695        H  0.55363345  0.61114735  0.85136807     0.43400
H696        H  0.55909947  0.49344660  0.75558956     0.43300
C697        C  0.22572648  0.53211300  0.91467904    -0.05700
C698        C  0.21373383  0.49311014  0.90138449    -0.33100
C699        C  0.23737910  0.47399589  0.90656275     0.36100
C700        C  0.27421933  0.49605404  0.92298984    -0.06100
C701        C  0.27587035  0.52479644  0.94604714    -0.33000
C702        C  0.25353624  0.54528723  0.94025904     0.36000
H703        H  0.19000533  0.48039294  0.88346039     0.16400
O704        O  0.23150194  0.44153756  0.88763644    -0.60500
H705        H  0.30212230  0.53955587  0.96157911     0.16400
O706        O  0.26203738  0.58010718  0.95708395    -0.60600
H707        H  0.28965421  0.60351786  0.94603830     0.43400
H708        H  0.21429291  0.41553819  0.90327223     0.43300
C709        C  0.55525520  0.99277789  0.82324173    -0.05700
C710        C  0.58381969  0.02893639  0.83799655    -0.33100
C711        C  0.57651804  0.06219783  0.84208822     0.36100
C712        C  0.54004246  0.06108264  0.83036287    -0.06100
C713        C  0.51567567  0.02848632  0.81010103    -0.33000
C714        C  0.52389525  0.99529139  0.80578512     0.36000
H715        H  0.60836896  0.02861674  0.85149865     0.16400
O716        O  0.60242014  0.09272645  0.86206213    -0.60500
H717        H  0.48835986  0.02676942  0.79982198     0.16400
O718        O  0.49915731  0.96410310  0.78604581    -0.60600
H719        H  0.51289994  0.97485852  0.76252172     0.43400
H720        H  0.63068558  0.10853412  0.84877338     0.43300
C721        C  0.26020167  0.73715050  0.92369856    -0.05700
C722        C  0.27453005  0.77777148  0.90871522    -0.33100
C723        C  0.31733302  0.80908745  0.90834772     0.36100
C724        C  0.34534426  0.79906262  0.92316755    -0.06100
C725        C  0.32841164  0.76194621  0.94491495    -0.33000
C726        C  0.28530362  0.73137803  0.94623651     0.36000
H727        H  0.25508728  0.78302523  0.89210947     0.16400
O728        O  0.33242368  0.84604494  0.88822487    -0.60500
H729        H  0.34927338  0.75441760  0.95752221     0.16400
O730        O  0.27080600  0.69226122  0.96280476    -0.60600
H731        H  0.24521728  0.68582579  0.97773773     0.43400
H732        H  0.33564772  0.86722779  0.90419398     0.43300
C733        C  0.49247913  0.75733060  0.92969505    -0.05700
C734        C  0.45183756  0.72889234  0.94632859    -0.33100
C735        C  0.43616369  0.68551221  0.94774179     0.36100
C736        C  0.46253450  0.67191325  0.93367024    -0.06100
C737        C  0.50667923  0.70088735  0.92888392    -0.33000
C738        C  0.52179263  0.74418356  0.92557892     0.36000
H739        H  0.42959945  0.73933790  0.95151295     0.16400
O740        O  0.39370649  0.65755407  0.95655349    -0.60500
H741        H  0.52825795  0.69053421  0.92081474     0.16400
O742        O  0.56276669  0.77196655  0.91206443    -0.60600
H743        H  0.56285016  0.76883960  0.88727423     0.43400
H744        H  0.39059403  0.65334568  0.98172683     0.43300
C745        C  0.00610907  0.52848577  0.65992885    -0.05700
C746        C  0.00952812  0.49464379  0.64795304    -0.33100
C747        C  0.04205140  0.48764380  0.65604318     0.36100
C748        C  0.07327317  0.51524093  0.67604386    -0.06100
C749        C  0.06686737  0.54582675  0.69148176    -0.33000
C750        C  0.03401981  0.55283046  0.68332293     0.36000
H751        H  0.98833681  0.47484419  0.63007042     0.16400
O752        O  0.04601280  0.45730434  0.64040301    -0.60500
H753        H  0.08996975  0.56737656  0.70731723     0.16400
O754        O  0.03208645  0.58582997  0.69590084    -0.60600
H755        H  0.05130547  0.61078384  0.67972533     0.43400
H756        H  0.03415086  0.43286947  0.65778041     0.43300
C757        C  0.22714721  0.64746833  0.70692621    -0.05700
C758        C  0.18491962  0.62711642  0.72109552    -0.33100
C759        C  0.17342684  0.60603267  0.75366441     0.36100
C760        C  0.20501041  0.60793163  0.77317128    -0.06100
C761        C  0.24794930  0.63478147  0.76060637    -0.33000
C762        C  0.25912160  0.65589282  0.72828043     0.36000
H763        H  0.16024579  0.62271333  0.70537791     0.16400
O764        O  0.13131662  0.58289775  0.76558426    -0.60500
H765        H  0.27324759  0.63914161  0.77563193     0.16400
O766        O  0.30127574  0.67894304  0.71595618    -0.60600
H767        H  0.30581636  0.70520631  0.70387210     0.43400
H768        H  0.12122499  0.55383953  0.75908746     0.43300
C769        C  0.32162145  0.53427566  0.77399135    -0.05700
C770        C  0.32500965  0.57143334  0.75883231    -0.33100
C771        C  0.30374401  0.57195293  0.73011861     0.36100
C772        C  0.27393535  0.53434886  0.71632080    -0.06100
C773        C  0.26872995  0.49641377  0.73210082    -0.33000
C774        C  0.29252587  0.49625154  0.75976432     0.36000
H775        H  0.34513404  0.60118491  0.76916757     0.16400
O776        O  0.31187010  0.61018916  0.71613254    -0.60500
H777        H  0.24681060  0.46662459  0.72247433     0.16400
O778        O  0.28562636  0.45829898  0.77340713    -0.60600
H779        H  0.30665396  0.45387499  0.76035459     0.43400
H780        H  0.33646600  0.62008875  0.69888801     0.43300
C781        C  0.51979939  0.48199488  0.67279443    -0.05700
C782        C  0.55544274  0.52138457  0.65936654    -0.33100
C783        C  0.55968935  0.56027015  0.66544366     0.36100
C784        C  0.52712908  0.56158941  0.68454248    -0.06100
C785        C  0.49247149  0.52253049  0.70009247    -0.33000
C786        C  0.48870696  0.48308409  0.69438859     0.36000
H787        H  0.57940300  0.52250226  0.64139295     0.16400
O788        O  0.59419267  0.59658355  0.64969268    -0.60500
H789        H  0.46640922  0.52218828  0.71453026     0.16400
O790        O  0.45295087  0.44613639  0.70751163    -0.60600
H791        H  0.43174355  0.44024037  0.69106429     0.43400
H792        H  0.58852181  0.59719683  0.62554344     0.43300
C793        C  0.51737621  0.74837110  0.71882406    -0.05700
C794        C  0.54027193  0.75184704  0.74726049    -0.33100
C795        C  0.53900119  0.77397437  0.77579035     0.36100
C796        C  0.51373473  0.79276683  0.77731736    -0.06100
C797        C  0.49080882  0.78885912  0.74913361    -0.33000
C798        C  0.49338220  0.76865922  0.72023415     0.36000
H799        H  0.55876491  0.73671454  0.74776022     0.16400
O800        O  0.56027942  0.77433597  0.80307207    -0.60500
H801        H  0.46991513  0.80127703  0.74952828     0.16400
O802        O  0.47032627  0.76752357  0.69398483    -0.60600
H803        H  0.48873751  0.79460578  0.67980582     0.43400
H804        H  0.58944483  0.79902784  0.79764614     0.43300
C805        C  0.45719484  0.62286698  0.78303039    -0.05700
C806        C  0.44685618  0.65217983  0.77065754    -0.33100
C807        C  0.42778081  0.64698590  0.74063964     0.36100
C808        C  0.41903038  0.61204560  0.72206094    -0.06100
C809        C  0.42713845  0.58161098  0.73545755    -0.33000
C810        C  0.44865061  0.58814824  0.76450692     0.36000
H811        H  0.45206459  0.67845842  0.78507373     0.16400
O812        O  0.41850970  0.67669395  0.72936419    -0.60500
H813        H  0.41995381  0.55425249  0.72184435     0.16400
O814        O  0.46216991  0.56126089  0.77422220    -0.60600
H815        H  0.43925388  0.53221305  0.77058038     0.43400
H816        H  0.39273196  0.67068377  0.74372434     0.43300
C817        C  0.38126090  0.57484054  0.57129339    -0.05700
C818        C  0.36664591  0.59240643  0.54786857    -0.33100
C819        C  0.32322715  0.57169732  0.54418231     0.36100
C820        C  0.29497512  0.53607578  0.56714387    -0.06100
C821        C  0.31070299  0.51281760  0.58242024    -0.33000
C822        C  0.35432375  0.53229269  0.58465514     0.36000
H823        H  0.38766877  0.62407464  0.53574883     0.16400
O824        O  0.30803641  0.59121982  0.52400163    -0.60500
H825        H  0.28952320  0.48394101  0.59841993     0.16400
O826        O  0.36869922  0.51291764  0.60569444    -0.60600
H827        H  0.38160661  0.50127810  0.59023385     0.43400
H828        H  0.31765072  0.61928919  0.53258798     0.43300
C829        C  0.47377502  0.99282834  0.65099950    -0.05700
C830        C  0.51256670  0.99717836  0.63777404    -0.33100
C831        C  0.55190366  0.02773802  0.64727503     0.36100
C832        C  0.55454385  0.05758224  0.66921503    -0.06100
C833        C  0.51583787  0.05251072  0.68396463    -0.33000
C834        C  0.47571765  0.02011477  0.67537584     0.36000
H835        H  0.51292052  0.97702203  0.61885448     0.16400
O836        O  0.58785089  0.02986428  0.63284650    -0.60500
H837        H  0.51674095  0.07534921  0.70062994     0.16400
O838        O  0.43943846  0.01829970  0.68828765    -0.60600
H839        H  0.43162421  0.00188141  0.71074637     0.43400
H840        H  0.59083889  0.03990727  0.60860357     0.43300
C841        C  0.30696404  0.79070953  0.72024882    -0.05700
C842        C  0.26485050  0.78029474  0.72960135    -0.33100
C843        C  0.24003498  0.75174413  0.75870688     0.36100
C844        C  0.25679370  0.73249002  0.77935338    -0.06100
C845        C  0.29951978  0.74492195  0.77067111    -0.33000
C846        C  0.32415375  0.77319308  0.74211138     0.36000
H847        H  0.25040938  0.79281633  0.71354185     0.16400
O848        O  0.19906668  0.74204839  0.76596811    -0.60500
H849        H  0.31422919  0.73170495  0.78566770     0.16400
O850        O  0.36471615  0.78147269  0.73451041    -0.60600
H851        H  0.38018899  0.79411311  0.75449379     0.43400
H852        H  0.20116484  0.76431006  0.78025713     0.43300
C853        C  0.45020385  0.88149731  0.71299189    -0.05700
C854        C  0.48023737  0.87926162  0.73055408    -0.33100
C855        C  0.47723789  0.87901536  0.76561741     0.36100
C856        C  0.44108688  0.87551696  0.78330167    -0.06100
C857        C  0.41223264  0.88030544  0.76571435    -0.33000
C858        C  0.41805952  0.88558871  0.73035792     0.36000
H859        H  0.50652696  0.87882914  0.71712319     0.16400
O860        O  0.51026664  0.88337873  0.78238623    -0.60500
H861        H  0.38596042  0.88066488  0.77921417     0.16400
O862        O  0.39176794  0.89375857  0.71310888    -0.60600
H863        H  0.39940323  0.92280665  0.71797095     0.43400
H864        H  0.53568817  0.91009784  0.77216139     0.43300
C865        C  0.29735729  0.77052537  0.56679794    -0.05700
C866        C  0.25349739  0.74885616  0.57550239    -0.33100
C867        C  0.22912439  0.70594543  0.57019220     0.36100
C868        C  0.24998425  0.68521523  0.55833592    -0.06100
C869        C  0.29103167  0.70939779  0.54186151    -0.33000
C870        C  0.31440316  0.75278336  0.54476471     0.36000
H871        H  0.23953829  0.76265659  0.59130750     0.16400
O872        O  0.18774364  0.68304167  0.58416015    -0.60500
H873        H  0.30720272  0.69404346  0.53180442     0.16400
O874        O  0.35668058  0.77509183  0.53308563    -0.60600
H875        H  0.35854420  0.79167915  0.51198349     0.43400
H876        H  0.17062744  0.67896105  0.56476310     0.43300
C877        C  0.53767180  0.77923115  0.58215340    -0.05700
C878        C  0.51141812  0.77728626  0.55707149    -0.33100
C879        C  0.49238909  0.80157178  0.55836938     0.36100
C880        C  0.50217053  0.83021879  0.58334985    -0.06100
C881        C  0.53559906  0.83880411  0.60310617    -0.33000
C882        C  0.55355555  0.81345784  0.60262052     0.36000
H883        H  0.50019727  0.75225835  0.54006191     0.16400
O884        O  0.46195088  0.79477476  0.53701301    -0.60500
H885        H  0.54422839  0.86159934  0.62193559     0.16400
O886        O  0.58089221  0.81788828  0.62627383    -0.60600
H887        H  0.60908869  0.84139339  0.61634052     0.43400
H888        H  0.43605701  0.76807208  0.54657318     0.43300
C889        C  0.92957565  0.40121972  0.94419243    -0.05700
C890        C  0.94576833  0.44231459  0.95444048    -0.33100
C891        C  0.94367976  0.44934211  0.98894391     0.36100
C892        C  0.92595671  0.41512185  0.01431410    -0.06100
C893        C  0.91312849  0.37458967  0.00438381    -0.33000
C894        C  0.91467129  0.36739668  0.96983600     0.36000
H895        H  0.95780428  0.46902452  0.93558404     0.16400
O896        O  0.95856940  0.48984600  0.99755403    -0.60500
H897        H  0.89931797  0.34779071  0.02335724     0.16400
O898        O  0.89840437  0.32659821  0.96154224    -0.60600
H899        H  0.92090524  0.32011713  0.96515234     0.43400
H900        H  0.93609040  0.49597548  0.99277919     0.43300
C901        C  0.51123450  0.10702297  0.04378853    -0.05700
C902        C  0.52248533  0.08230173  0.02506117    -0.33100
C903        C  0.52358483  0.08433388  0.98962879     0.36100
C904        C  0.51356379  0.11160522  0.97219297    -0.06100
C905        C  0.49771491  0.13275626  0.99107587    -0.33000
C906        C  0.49645882  0.13054220  0.02680180     0.36000
H907        H  0.53395868  0.06407495  0.03773964     0.16400
O908        O  0.53828651  0.06249049  0.97205268    -0.60500
H909        H  0.49018063  0.15411655  0.97806924     0.16400
O910        O  0.48596644  0.15561559  0.04428900    -0.60600
H911        H  0.45562536  0.13685637  0.05279203     0.43400
H912        H  0.51247103  0.03584854  0.96747888     0.43300
C913        C  0.69622025  0.23017997  0.06800963    -0.05700
C914        C  0.70703293  0.26826365  0.04989966    -0.33100
C915        C  0.74897391  0.30165731  0.04707445     0.36100
C916        C  0.77881509  0.29654458  0.06403060    -0.06100
C917        C  0.77045638  0.25576947  0.07258876    -0.33000
C918        C  0.72873068  0.22194660  0.07451714     0.36000
H919        H  0.68261574  0.27427255  0.04269927     0.16400
O920        O  0.75827058  0.34113817  0.03490518    -0.60500
H921        H  0.79391815  0.25109300  0.08388959     0.16400
O922        O  0.71956553  0.18355925  0.08928934    -0.60600
H923        H  0.71259446  0.16497537  0.07041200     0.43400
H924        H  0.75982483  0.34093320  0.00981650     0.43300
C925        C  0.62734433  0.51266200  0.95872510    -0.05700
C926        C  0.58741474  0.48671296  0.97722242    -0.33100
C927        C  0.58313342  0.48205078  0.01306580     0.36100
C928        C  0.61898801  0.50364212  0.03147663    -0.06100
C929        C  0.65802631  0.53280958  0.01325164    -0.33000
C930        C  0.66245251  0.53743103  0.97741872     0.36000
H931        H  0.55982899  0.46744584  0.96394937     0.16400
O932        O  0.54406553  0.45392944  0.02982944    -0.60500
H933        H  0.68608623  0.54951899  0.02665716     0.16400
O934        O  0.70218420  0.56392229  0.96104418    -0.60600
H935        H  0.70440187  0.59171127  0.95737175     0.43400
H936        H  0.53188153  0.47134539  0.03649276     0.43300
C937        C  0.76802761  0.52700313  0.05815255    -0.05700
C938        C  0.80520314  0.55206115  0.07336788    -0.33100
C939        C  0.83283805  0.53719896  0.07724328     0.36100
C940        C  0.82426770  0.49944371  0.06289158    -0.06100
C941        C  0.79519031  0.48400064  0.03833901    -0.33000
C942        C  0.76894303  0.50056474  0.03401848     0.36000
H943        H  0.80727627  0.57597957  0.08939589     0.16400
O944        O  0.86395830  0.55614144  0.09880409    -0.60500
H945        H  0.79007573  0.45693556  0.02511673     0.16400
O946        O  0.73690437  0.48240586  0.01319997    -0.60600
H947        H  0.71463772  0.45528658  0.02566438     0.43400
H948        H  0.84953259  0.54409968  0.12200848     0.43300
C949        C  0.58289249  0.33337610  0.06370226    -0.05700
C950        C  0.53811155  0.30798223  0.06995372    -0.33100
C951        C  0.51918522  0.26454014  0.07843013     0.36100
C952        C  0.54506495  0.24724413  0.07712473    -0.06100
C953        C  0.58485883  0.27014164  0.05761422    -0.33000
C954        C  0.60486660  0.31411573  0.05190124     0.36000
H955        H  0.51961798  0.32241183  0.07616362     0.16400
O956        O  0.47906011  0.24218816  0.09498081    -0.60500
H957        H  0.60395755  0.25589243  0.05385431     0.16400
O958        O  0.64745656  0.33766438  0.04159080    -0.60600
H959        H  0.64923608  0.34338859  0.01664280     0.43400
H960        H  0.46079067  0.22451386  0.07785492     0.43300
C961        C  0.62711509  0.11223554  0.47127990    -0.05700
C962        C  0.59024073  0.09252091  0.49433733    -0.33100
C963        C  0.59256225  0.09383875  0.52957020     0.36100
C964        C  0.63238473  0.11564557  0.54263959    -0.06100
C965        C  0.66926145  0.13210949  0.51961780    -0.33000
C966        C  0.66685049  0.13052450  0.48431159     0.36000
H967        H  0.55926438  0.07795544  0.48488032     0.16400
O968        O  0.55560348  0.07604443  0.55070373    -0.60500
H969        H  0.70038417  0.14906100  0.52873285     0.16400
O970        O  0.70360118  0.15114080  0.46283591    -0.60600
H971        H  0.71016263  0.12907100  0.45738192     0.43400
H972        H  0.54850415  0.04675346  0.55718887     0.43300
C973        C  0.58638377  0.16843717  0.28318216    -0.05700
C974        C  0.62166371  0.20421245  0.26580226    -0.33100
C975        C  0.63810841  0.20222260  0.23383410     0.36100
C976        C  0.61889059  0.16397779  0.21852215    -0.06100
C977        C  0.58378118  0.12798585  0.23607302    -0.33000
C978        C  0.56646039  0.13045760  0.26738808     0.36000
H979        H  0.63685999  0.23392559  0.27714715     0.16400
O980        O  0.67074240  0.23862464  0.21665662    -0.60500
H981        H  0.56801863  0.09824721  0.22481702     0.16400
O982        O  0.53029864  0.09532343  0.28249761    -0.60600
H983        H  0.50700010  0.10052156  0.27859073     0.43400
H984        H  0.69387534  0.23287859  0.21143494     0.43300
C985        C  0.73421704  0.25389242  0.27391749    -0.05700
C986        C  0.73106847  0.28863799  0.26183411    -0.33100
C987        C  0.75392934  0.31433887  0.23160244     0.36100
C988        C  0.78625800  0.31080772  0.21347194    -0.06100
C989        C  0.79128636  0.27721157  0.22622428    -0.33000
C990        C  0.76525300  0.24865523  0.25531100     0.36000
H991        H  0.70812368  0.29464849  0.27462714     0.16400
O992        O  0.74232508  0.34167945  0.21934309    -0.60500
H993        H  0.81461318  0.27207497  0.21297593     0.16400
O994        O  0.77036547  0.21563883  0.26492629    -0.60600
H995        H  0.79334667  0.22734132  0.28023943     0.43400
H996        H  0.71848397  0.32486183  0.20559082     0.43300
C997        C  0.92329141  0.53341147  0.44924986    -0.05700
C998        C  0.90358059  0.54972482  0.46980925    -0.33100
C999        C  0.91001742  0.55369313  0.50455831     0.36100
C1000       C  0.93623836  0.54099729  0.51901769    -0.06100
C1001       C  0.95909304  0.52886645  0.49746773    -0.33000
C1002       C  0.95261891  0.52478601  0.46303596     0.36000
H1003       H  0.88052125  0.55598146  0.45969803     0.16400
O1004       O  0.88660968  0.56503368  0.52478459    -0.60500
H1005       H  0.97951787  0.51912279  0.50796685     0.16400
O1006       O  0.97336978  0.50998926  0.44334826    -0.60600
H1007       H  0.95730250  0.47888245  0.44891011     0.43400
H1008       H  0.90593728  0.59553094  0.52731685     0.43300
C1009       C  0.86185381  0.45152397  0.20415196    -0.05700
C1010       C  0.89752599  0.45690429  0.21912092    -0.33100
C1011       C  0.89409035  0.44141380  0.25244027     0.36100
C1012       C  0.85461080  0.42178556  0.27227342    -0.06100
C1013       C  0.81845699  0.41447598  0.25694189    -0.33000
C1014       C  0.82182455  0.42979547  0.22324158     0.36000
H1015       H  0.92844305  0.47275498  0.20490630     0.16400
O1016       O  0.93013887  0.44778566  0.26578013    -0.60500
H1017       H  0.78779234  0.39938684  0.27171639     0.16400
O1018       O  0.78622880  0.42371341  0.20888734    -0.60600
H1019       H  0.76692270  0.42468215  0.22694976     0.43400
H1020       H  0.93397840  0.42457945  0.25838375     0.43300
C1021       C  0.74367855  0.49566709  0.20898703    -0.05700
C1022       C  0.78640620  0.50579240  0.20391789    -0.33100
C1023       C  0.81174013  0.51168723  0.23163427     0.36100
C1024       C  0.79384273  0.50334832  0.26589810    -0.06100
C1025       C  0.75213820  0.49612302  0.27069650    -0.33000
C1026       C  0.72850676  0.49465223  0.24295213     0.36000
H1027       H  0.80034550  0.50893281  0.17825383     0.16400
O1028       O  0.85324714  0.52295273  0.22480727    -0.60500
H1029       H  0.73749825  0.49151542  0.29636187     0.16400
O1030       O  0.68944334  0.49011071  0.24960043    -0.60600
H1031       H  0.69523729  0.51918521  0.25175096     0.43400
H1032       H  0.86878513  0.55366351  0.21758422     0.43300
C1033       C  0.80078721  0.34407838  0.42141457    -0.05700
C1034       C  0.81658917  0.31814765  0.41138650    -0.33100
C1035       C  0.78896519  0.27461244  0.41168435     0.36100
C1036       C  0.74617997  0.25784879  0.42291132    -0.06100
C1037       C  0.73511065  0.28165419  0.44342266    -0.33000
C1038       C  0.76195148  0.32551068  0.44165280     0.36000
H1039       H  0.84788149  0.33180314  0.39788592     0.16400
O1040       O  0.80160403  0.25135937  0.39381008    -0.60500
H1041       H  0.70257469  0.26806494  0.45428239     0.16400
O1042       O  0.74721740  0.34974759  0.45492167    -0.60600
H1043       H  0.76011259  0.35785632  0.47667288     0.43400
H1044       H  0.80498527  0.23361324  0.41134220     0.43300
C1045       C  0.52392073  0.40705612  0.46193299    -0.05700
C1046       C  0.50709366  0.36987893  0.48378566    -0.33100
C1047       C  0.50881634  0.37175284  0.51920371     0.36100
C1048       C  0.52700972  0.41116262  0.53317651    -0.06100
C1049       C  0.54062676  0.44779145  0.51145006    -0.33000
C1050       C  0.53933110  0.44600642  0.47622645     0.36000
H1051       H  0.49584742  0.33974489  0.47324400     0.16400
O1052       O  0.49580200  0.33539096  0.53952837    -0.60500
H1053       H  0.55428178  0.47835423  0.52168170     0.16400
O1054       O  0.55440632  0.48276633  0.45575986    -0.60600
H1055       H  0.58578172  0.49723464  0.45469564     0.43400
H1056       H  0.51938769  0.32990236  0.53650387     0.43300
C1057       C  0.54477486  0.28201884  0.28807218    -0.05700
C1058       C  0.50729958  0.25441128  0.27276590    -0.33100
C1059       C  0.50686067  0.22833011  0.24643427     0.36100
C1060       C  0.54464763  0.23010428  0.23321189    -0.06100
C1061       C  0.58175325  0.25916973  0.24765654    -0.33000
C1062       C  0.58177850  0.28227306  0.27526766     0.36000
H1063       H  0.47798341  0.25272511  0.28131398     0.16400
O1064       O  0.46956106  0.20288687  0.23281400    -0.60500
H1065       H  0.61211729  0.26462236  0.23734385     0.16400
O1066       O  0.61946533  0.30630903  0.28882783    -0.60600
H1067       H  0.62096590  0.28680130  0.30590060     0.43400
H1068       H  0.45588172  0.17558228  0.24704380     0.43300
C1069       C  0.59203188  0.36578192  0.21261408    -0.05700
C1070       C  0.62930257  0.37446891  0.22673916    -0.33100
C1071       C  0.63851056  0.39351765  0.25714645     0.36100
C1072       C  0.61023716  0.40410429  0.27274906    -0.06100
C1073       C  0.56987509  0.38807515  0.26147264    -0.33000
C1074       C  0.55956532  0.36567827  0.23292071     0.36000
H1075       H  0.65395976  0.37245998  0.21213004     0.16400
O1076       O  0.67680595  0.40572980  0.26951853    -0.60500
H1077       H  0.54614926  0.39236004  0.27494607     0.16400
O1078       O  0.52016355  0.35034024  0.22188276    -0.60600
H1079       H  0.50563993  0.31917080  0.22631512     0.43400
H1080       H  0.67951083  0.38042492  0.27111046     0.43300
C1081       C  0.52736708  0.27104390  0.43847175    -0.05700
C1082       C  0.49687808  0.23125164  0.42922856    -0.33100
C1083       C  0.50824392  0.20090777  0.42517245     0.36100
C1084       C  0.54899615  0.21060137  0.43268220    -0.06100
C1085       C  0.57158633  0.24368422  0.45316854    -0.33000
C1086       C  0.55991983  0.27382035  0.45704811     0.36000
H1087       H  0.46926453  0.22716378  0.41770294     0.16400
O1088       O  0.48249902  0.16552467  0.40918249    -0.60500
H1089       H  0.60141185  0.24971575  0.46168918     0.16400
O1090       O  0.58561973  0.31001198  0.47228663    -0.60600
H1091       H  0.61353734  0.32452024  0.45845367     0.43400
H1092       H  0.48664915  0.17538402  0.38474425     0.43300
C1093       C  0.78388174  0.52629988  0.41095635    -0.05700
C1094       C  0.75645023  0.49657492  0.43787675    -0.33100
C1095       C  0.71305501  0.47227901  0.43377476     0.36100
C1096       C  0.69786178  0.48340131  0.40589465    -0.06100
C1097       C  0.72424397  0.52351001  0.38785261    -0.33000
C1098       C  0.76764404  0.54618543  0.39144043     0.36000
H1099       H  0.76906892  0.48420942  0.45603661     0.16400
O1100       O  0.68707778  0.43622542  0.45483912    -0.60500
H1101       H  0.71266868  0.53476211  0.36791280     0.16400
O1102       O  0.79416800  0.58021046  0.36866607    -0.60600
H1103       H  0.79779874  0.60518571  0.37986055     0.43400
H1104       H  0.69334339  0.41475114  0.44688473     0.43300
C1105       C  0.10832765  0.49244408  0.47584280    -0.05700
C1106       C  0.10339460  0.52252581  0.49300796    -0.33100
C1107       C  0.11031398  0.52798413  0.52764212     0.36100
C1108       C  0.12300607  0.50348288  0.54630844    -0.06100
C1109       C  0.12448200  0.47110279  0.52995631    -0.33000
C1110       C  0.11716468  0.46533506  0.49543635     0.36000
H1111       H  0.09673626  0.54395263  0.47902161     0.16400
O1112       O  0.10804938  0.55993512  0.54200468    -0.60500
H1113       H  0.13329247  0.45114302  0.54354837     0.16400
O1114       O  0.12044917  0.43400682  0.48084665    -0.60600
H1115       H  0.15118200  0.44409160  0.47853424     0.43400
H1116       H  0.07759174  0.54759747  0.54976074     0.43300
C1117       C  0.06454410  0.50931742  0.32136355    -0.05700
C1118       C  0.02505759  0.47281659  0.32933423    -0.33100
C1119       C  0.98789386  0.47382705  0.32704404     0.36100
C1120       C  0.98939206  0.51150916  0.31456889    -0.06100
C1121       C  0.02850736  0.54542795  0.30054866    -0.33000
C1122       C  0.06600417  0.54498751  0.30435759     0.36000
H1123       H  0.02279656  0.44525613  0.34241838     0.16400
O1124       O  0.95119550  0.44009401  0.34293579    -0.60500
H1125       H  0.03085690  0.57455595  0.29104499     0.16400
O1126       O  0.10403918  0.58120824  0.29412450    -0.60600
H1127       H  0.10764518  0.60151281  0.31109822     0.43400
H1128       H  0.94389543  0.41634574  0.32859241     0.43300
C1129       C  0.51343750  0.60748132  0.48199906    -0.05700
C1130       C  0.49326510  0.57355281  0.50747232    -0.33100
C1131       C  0.50296761  0.57905066  0.54137695     0.36100
C1132       C  0.53275320  0.61954395  0.55105378    -0.06100
C1133       C  0.55438520  0.65300760  0.52522740    -0.33000
C1134       C  0.54509753  0.64727594  0.49116456     0.36000
H1135       H  0.46912252  0.54249901  0.50123645     0.16400
O1136       O  0.48096399  0.54494011  0.56509518    -0.60500
H1137       H  0.57726242  0.68446046  0.53164115     0.16400
O1138       O  0.56583526  0.68144282  0.46739838    -0.60600
H1139       H  0.54920724  0.69564338  0.46868696     0.43400
H1140       H  0.49898505  0.53234710  0.56665731     0.43300
C1141       C  0.50840138  0.52809582  0.34297277    -0.05700
C1142       C  0.53270031  0.52802258  0.31423766    -0.33100
C1143       C  0.52676839  0.48927531  0.30371139     0.36100
C1144       C  0.49608865  0.45007083  0.32173102    -0.06100
C1145       C  0.46594966  0.45033413  0.34461746    -0.33000
C1146       C  0.47422231  0.48804471  0.35780486     0.36000
H1147       H  0.55829423  0.55770549  0.30170006     0.16400
O1148       O  0.55544595  0.49031823  0.27937363    -0.60500
H1149       H  0.44168257  0.42082959  0.35851199     0.16400
O1150       O  0.44950723  0.48478084  0.38655523    -0.60600
H1151       H  0.46194727  0.47826171  0.40571763     0.43400
H1152       H  0.54560973  0.49390476  0.25742726     0.43300
C1153       C  0.32408152  0.51091928  0.43926347    -0.05700
C1154       C  0.30629610  0.52548222  0.46332428    -0.33100
C1155       C  0.26224015  0.50686733  0.46797544     0.36100
C1156       C  0.23793014  0.47919834  0.44408377    -0.06100
C1157       C  0.25347648  0.45611733  0.42826527    -0.33000
C1158       C  0.29716473  0.47224202  0.42544697     0.36000
H1159       H  0.32649202  0.55361694  0.47568049     0.16400
O1160       O  0.24536817  0.52495760  0.48810253    -0.60500
H1161       H  0.23417309  0.43190013  0.41200427     0.16400
O1162       O  0.31331524  0.45440449  0.40427936    -0.60600
H1163       H  0.31319315  0.43185990  0.41888635     0.43400
H1164       H  0.22756624  0.50298856  0.50690008     0.43300
C1165       C  0.40448663  0.90607387  0.44559183    -0.05700
C1166       C  0.44399441  0.92782525  0.45871883    -0.33100
C1167       C  0.44658340  0.93092926  0.49369409     0.36100
C1168       C  0.40924528  0.91233511  0.51635339    -0.06100
C1169       C  0.36987304  0.89438853  0.50309587    -0.33000
C1170       C  0.36721647  0.89126966  0.46804360     0.36000
H1171       H  0.47310194  0.94040484  0.44211401     0.16400
O1172       O  0.48587068  0.95146392  0.50559342    -0.60500
H1173       H  0.34087491  0.88012308  0.52007846     0.16400
O1174       O  0.32774824  0.87059955  0.45655624    -0.60600
H1175       H  0.32217762  0.89324047  0.44957692     0.43400
H1176       H  0.49624543  0.93150770  0.50439926     0.43300
C1177       C  0.48411812  0.96452211  0.31744962    -0.05700
C1178       C  0.52553246  0.97352065  0.30629348    -0.33100
C1179       C  0.56251466  0.01172246  0.31280949     0.36100
C1180       C  0.55866609  0.04168971  0.33093555    -0.06100
C1181       C  0.51732438  0.03374834  0.33960780    -0.33000
C1182       C  0.48079282  0.99664012  0.33243770     0.36000
H1183       H  0.52940594  0.94956212  0.29467803     0.16400
O1184       O  0.60181432  0.01762812  0.30390488    -0.60500
H1185       H  0.51286840  0.05561584  0.35403608     0.16400
O1186       O  0.44197095  0.99037330  0.34387291    -0.60600
H1187       H  0.43309625  0.00086188  0.32446444     0.43400
H1188       H  0.60729219  0.00348864  0.32308914     0.43300
C1189       C  0.44770086  0.77526156  0.43052273    -0.05700
C1190       C  0.48967800  0.79055884  0.41693650    -0.33100
C1191       C  0.50548080  0.76329669  0.41614239     0.36100
C1192       C  0.47884050  0.72100414  0.42929694    -0.06100
C1193       C  0.44234077  0.71022005  0.45106138    -0.33000
C1194       C  0.42592569  0.73683703  0.45091624     0.36000
H1195       H  0.50724534  0.82073312  0.40178752     0.16400
O1196       O  0.54260776  0.77562791  0.39659827    -0.60500
H1197       H  0.42231996  0.67811963  0.46269389     0.16400
O1198       O  0.38561373  0.72197243  0.46570207    -0.60600
H1199       H  0.38938562  0.73755464  0.48623237     0.43400
H1200       H  0.56472771  0.78638132  0.41269701     0.43300
C1201       C  0.25885318  0.74712928  0.42142589    -0.05700
C1202       C  0.26571339  0.72828387  0.45036544    -0.33100
C1203       C  0.25431829  0.68572990  0.45090737     0.36100
C1204       C  0.22908089  0.66098216  0.42646002    -0.06100
C1205       C  0.21040859  0.67734341  0.40549882    -0.33000
C1206       C  0.22486451  0.72062285  0.40321713     0.36000
H1207       H  0.28935602  0.74823015  0.46674763     0.16400
O1208       O  0.27034172  0.66965508  0.47343333    -0.60500
H1209       H  0.18766013  0.65759502  0.38857031     0.16400
O1210       O  0.21271619  0.73734899  0.37783956    -0.60600
H1211       H  0.19295329  0.74450482  0.38954179     0.43400
H1212       H  0.29763458  0.67549142  0.46178739     0.43300
C1213       C  0.12741737  0.59969737  0.97116087    -0.05700
C1214       C  0.12223794  0.63186356  0.98407943    -0.33100
C1215       C  0.12210673  0.63750301  0.01913194     0.36100
C1216       C  0.12657466  0.61043955  0.04260559    -0.06100
C1217       C  0.12995335  0.57722588  0.02995310    -0.33000
C1218       C  0.13092483  0.57199909  0.99490873     0.36000
H1219       H  0.11985901  0.65392868  0.96681368     0.16400
O1220       O  0.11895663  0.67058294  0.02997441    -0.60500
H1221       H  0.13445620  0.55652846  0.04710480     0.16400
O1222       O  0.13778946  0.54102835  0.98421008    -0.60600
H1223       H  0.10913809  0.51540577  0.98463094     0.43400
H1224       H  0.08827547  0.65844978  0.03664965     0.43300
C1225       C  0.98945831  0.48870850  0.15422948    -0.05700
C1226       C  0.01272427  0.48646394  0.18004348    -0.33100
C1227       C  0.04774105  0.52379696  0.18977626     0.36100
C1228       C  0.05953719  0.56409279  0.17388097    -0.06100
C1229       C  0.03230931  0.56619609  0.15205696    -0.33000
C1230       C  0.99882759  0.52950524  0.14130353     0.36000
H1231       H  0.00581807  0.45592322  0.19087709     0.16400
O1232       O  0.07219221  0.52019993  0.21276461    -0.60500
H1233       H  0.03981315  0.59638275  0.13985846     0.16400
O1234       O  0.97665284  0.53428012  0.11663951    -0.60600
H1235       H  0.99512464  0.54183287  0.09502578     0.43400
H1236       H  0.05819347  0.51898648  0.23534929     0.43300
C1237       C  0.22709359  0.61999820  0.29225090    -0.05700
C1238       C  0.19080445  0.59027152  0.27806649    -0.33100
C1239       C  0.19166434  0.58389822  0.24391387     0.36100
C1240       C  0.22957854  0.60808328  0.22286606    -0.06100
C1241       C  0.26675074  0.63720158  0.23710606    -0.33000
C1242       C  0.26572935  0.64292454  0.27165715     0.36000
H1243       H  0.16256360  0.56851794  0.29391958     0.16400
O1244       O  0.15506110  0.55428881  0.23143012    -0.60500
H1245       H  0.29646059  0.65612645  0.22123838     0.16400
O1246       O  0.30298914  0.66821836  0.28553244    -0.60600
H1247       H  0.30290441  0.69428316  0.29019122     0.43400
H1248       H  0.15286805  0.52677668  0.23698259     0.43300
C1249       C  0.29766402  0.77483630  0.27182865    -0.05700
C1250       C  0.25938047  0.73511950  0.27333747    -0.33100
C1251       C  0.23838392  0.71807004  0.24382680     0.36100
C1252       C  0.25589497  0.73940465  0.21099515    -0.06100
C1253       C  0.29402723  0.77914381  0.20942979    -0.33000
C1254       C  0.31396411  0.79716423  0.23907654     0.36000
H1255       H  0.24543550  0.71689846  0.29769989     0.16400
O1256       O  0.20175874  0.67914017  0.24728233    -0.60500
H1257       H  0.30850321  0.79670016  0.18489495     0.16400
O1258       O  0.34954119  0.83692344  0.23540460    -0.60600
H1259       H  0.37325838  0.83304282  0.24073877     0.43400
H1260       H  0.17871189  0.68477308  0.25320041     0.43300
C1261       C  0.40665883  0.49533025  0.03800224    -0.05700
C1262       C  0.36841611  0.48021445  0.02316568    -0.33100
C1263       C  0.36801890  0.47983220  0.98767695     0.36100
C1264       C  0.40593843  0.49359555  0.96693789    -0.06100
C1265       C  0.44301667  0.50401223  0.98225273    -0.33000
C1266       C  0.44369427  0.50536705  0.01747760     0.36000
H1267       H  0.33972976  0.47258384  0.03869708     0.16400
O1268       O  0.33160004  0.47033936  0.97336594    -0.60500
H1269       H  0.47254982  0.51504122  0.96658440     0.16400
O1270       O  0.48113520  0.51839981  0.03152123    -0.60600
H1271       H  0.49750774  0.54969622  0.02739289     0.43400
H1272       H  0.32946851  0.49585972  0.97494613     0.43300
C1273       C  0.47608452  0.48976039  0.17453494    -0.05700
C1274       C  0.47470800  0.45521343  0.19192206    -0.33100
C1275       C  0.51257260  0.45498625  0.19473859     0.36100
C1276       C  0.55229476  0.49024184  0.18140588    -0.06100
C1277       C  0.55394482  0.52712905  0.17015578    -0.33000
C1278       C  0.51674309  0.52649866  0.16440953     0.36000
H1279       H  0.44441559  0.42659275  0.19938860     0.16400
O1280       O  0.51001210  0.41821206  0.20619390    -0.60500
H1281       H  0.58392623  0.55400273  0.15901568     0.16400
O1282       O  0.52092653  0.55950342  0.14375507    -0.60600
H1283       H  0.53778218  0.58537192  0.15560644     0.43400
H1284       H  0.50332282  0.41555046  0.23117809     0.43300
C1285       C  0.24572970  0.50179363  0.29268778    -0.05700
C1286       C  0.24543987  0.52246597  0.26210391    -0.33100
C1287       C  0.27086868  0.52659005  0.23212018     0.36100
C1288       C  0.29713092  0.50891681  0.23136133    -0.06100
C1289       C  0.29538929  0.48579463  0.26143386    -0.33000
C1290       C  0.27106578  0.48316622  0.29188794     0.36000
H1291       H  0.22652470  0.53703594  0.26180599     0.16400
O1292       O  0.27012910  0.54862306  0.20363347    -0.60500
H1293       H  0.31482977  0.47168302  0.26196230     0.16400
O1294       O  0.27239947  0.46228149  0.32082681    -0.60600
H1295       H  0.29775343  0.48349791  0.33127074     0.43400
H1296       H  0.24549641  0.52775934  0.19227650     0.43300
C1297       C  0.44186835  0.57927153  0.22732497    -0.05700
C1298       C  0.40705906  0.57896446  0.24396910    -0.33100
C1299       C  0.39370385  0.56401115  0.27824273     0.36100
C1300       C  0.41668301  0.55041986  0.29655671    -0.06100
C1301       C  0.45111278  0.55008282  0.27966658    -0.33000
C1302       C  0.46389977  0.56441454  0.24539781     0.36000
H1303       H  0.38959855  0.58991252  0.23017100     0.16400
O1304       O  0.35967665  0.56440100  0.29453611    -0.60500
H1305       H  0.46956941  0.54046178  0.29328681     0.16400
O1306       O  0.49911807  0.56574067  0.23021054    -0.60600
H1307       H  0.49323026  0.53635950  0.23301664     0.43400
H1308       H  0.34610167  0.57308829  0.27775681     0.43300
C1309       C  0.23927840  0.55898254  0.08409279    -0.05700
C1310       C  0.27404680  0.57164227  0.06024321    -0.33100
C1311       C  0.29545768  0.54949369  0.06036044     0.36100
C1312       C  0.28388075  0.51714767  0.08657159    -0.06100
C1313       C  0.24388217  0.49885713  0.10477948    -0.33000
C1314       C  0.22138712  0.51980647  0.10372969     0.36000
H1315       H  0.28705074  0.60081359  0.04404799     0.16400
O1316       O  0.33227760  0.56457181  0.03934928    -0.60500
H1317       H  0.23398038  0.47342137  0.12450604     0.16400
O1318       O  0.18641851  0.50599639  0.12660227    -0.60600
H1319       H  0.16184607  0.48754410  0.11407344     0.43400
H1320       H  0.35305559  0.59229823  0.04718879     0.43300
C1321       C  0.53473444  0.91134925  0.96855595    -0.05700
C1322       C  0.51797028  0.93167975  0.98728877    -0.33100
C1323       C  0.51953099  0.93275917  0.02243531     0.36100
C1324       C  0.53741402  0.91253264  0.03997302    -0.06100
C1325       C  0.55845613  0.89628479  0.02084256    -0.33000
C1326       C  0.55751140  0.89592739  0.98521402     0.36000
H1327       H  0.50115898  0.94459499  0.97489466     0.16400
O1328       O  0.49957142  0.95000121  0.03989312    -0.60500
H1329       H  0.57207401  0.88028654  0.03373487     0.16400
O1330       O  0.57468347  0.87617681  0.96770785    -0.60600
H1331       H  0.60308388  0.89929494  0.95774871     0.43400
H1332       H  0.52212504  0.97969218  0.04203248     0.43300
C1333       C  0.53500436  0.96116218  0.19009195    -0.05700
C1334       C  0.57024556  0.99933279  0.17692382    -0.33100
C1335       C  0.56693197  0.03488664  0.17010610     0.36100
C1336       C  0.53026879  0.03600599  0.18281940    -0.06100
C1337       C  0.49816350  0.99996024  0.20266865    -0.33000
C1338       C  0.49972080  0.96236954  0.20545701     0.36000
H1339       H  0.59700989  0.99905357  0.16418059     0.16400
O1340       O  0.59602480  0.06449438  0.14525864    -0.60500
H1341       H  0.46940504  0.99892140  0.21204715     0.16400
O1342       O  0.46413299  0.92575398  0.21917878    -0.60600
H1343       H  0.46538362  0.92636668  0.24411975     0.43400
H1344       H  0.62439546  0.07483825  0.15337656     0.43300
C1345       C  0.49476792  0.75013610  0.22207185    -0.05700
C1346       C  0.45700198  0.71135031  0.23278239    -0.33100
C1347       C  0.45214098  0.68638474  0.26276501     0.36100
C1348       C  0.48656787  0.69621440  0.28219316    -0.06100
C1349       C  0.52575351  0.73326399  0.27008492    -0.33000
C1350       C  0.52984061  0.76011754  0.24094119     0.36000
H1351       H  0.42932699  0.70124382  0.21904751     0.16400
O1352       O  0.41261430  0.65240239  0.27298023    -0.60500
H1353       H  0.55317686  0.74239982  0.28393483     0.16400
O1354       O  0.56833071  0.79606101  0.23139982    -0.60600
H1355       H  0.58415344  0.78681006  0.21653425     0.43400
H1356       H  0.39894209  0.66297247  0.28877826     0.43300
C1357       C  0.43133779  0.80835149  0.22473164    -0.05700
C1358       C  0.46753396  0.83852130  0.23928502    -0.33100
C1359       C  0.47876264  0.82812417  0.26941399     0.36100
C1360       C  0.45014162  0.78909443  0.28732137    -0.06100
C1361       C  0.42048764  0.75639104  0.26937879    -0.33000
C1362       C  0.40886031  0.76633062  0.23922039     0.36000
H1363       H  0.48675218  0.87053208  0.22798848     0.16400
O1364       O  0.51180333  0.85926901  0.28457798    -0.60500
H1365       H  0.39945184  0.72531237  0.28239159     0.16400
O1366       O  0.37462488  0.73525274  0.22507396    -0.60600
H1367       H  0.35036019  0.73822259  0.23311672     0.43400
H1368       H  0.53686755  0.85762731  0.27654237     0.43300
C1369       C  0.28440570  0.76156499  0.05954076    -0.05700
C1370       C  0.29884879  0.80080092  0.07247478    -0.33100
C1371       C  0.34064633  0.82355704  0.08070094     0.36100
C1372       C  0.36724209  0.80701298  0.07420950    -0.06100
C1373       C  0.35650357  0.77710401  0.05044231    -0.33000
C1374       C  0.31477159  0.75490852  0.04189473     0.36000
H1375       H  0.27641660  0.80880670  0.08329164     0.16400
O1376       O  0.35254573  0.85724771  0.09986271    -0.60500
H1377       H  0.37797893  0.76654604  0.04258125     0.16400
O1378       O  0.30192843  0.72022460  0.02369145    -0.60600
H1379       H  0.30869060  0.70098230  0.03633249     0.43400
H1380       H  0.36417000  0.88226517  0.08311350     0.43300
C1381       C  0.52636738  0.76352321  0.07473963    -0.05700
C1382       C  0.49612187  0.73783602  0.05307488    -0.33100
C1383       C  0.47815290  0.69401076  0.05737357     0.36100
C1384       C  0.49341244  0.67718304  0.08131252    -0.06100
C1385       C  0.53266664  0.70440939  0.09359272    -0.33000
C1386       C  0.54995808  0.74817482  0.08963828     0.36000
H1387       H  0.47966945  0.75006181  0.03921564     0.16400
O1388       O  0.44241655  0.66814276  0.04196037    -0.60500
H1389       H  0.54662518  0.69202074  0.11036416     0.16400
O1390       O  0.58307785  0.77376990  0.10771571    -0.60600
H1391       H  0.60886924  0.77883116  0.09389772     0.43400
H1392       H  0.45304589  0.66348977  0.01992432     0.43300
loop_ 
_geom_bond_atom_site_label_1 
_geom_bond_atom_site_label_2 
_geom_bond_distance 
_geom_bond_site_symmetry_2 
_ccdc_geom_bond_type 
O1          Cr19   1.957       .  S
O1            C9   1.267       .  A
O2          Cr19   1.935       .  S
O2            C3   1.234       .  A
C3            O4   1.263       .  A
C3         C1333   1.488       .  S
O4          Cr20   2.063       .  S
O5          Cr20   2.074       .  S
O5            C6   1.283       .  A
C6            O7   1.270       .  A
C6         C1345   1.547       .  S
O7          Cr21   2.011       .  S
O8          Cr21   1.994       .  S
O8            C9   1.272       .  A
C9         C1357   1.459       .  S
O10         Cr19   1.950       .  S
O10          C18   1.240       .  A
O11         Cr19   1.941       .  S
O11          C12   1.272       .  A
C12          O13   1.297       .  A
C12        C1324   1.488       .  S
O13         Cr20   2.080       .  S
O14         Cr20   2.004       .  S
O14          C15   1.265       .  A
C15          O16   1.257       .  A
C15        C1381   1.470       .  S
O16         Cr21   1.942       .  S
O17         Cr21   2.009       .  S
O17          C18   1.254       .  A
C18        C1372   1.469       .  S
Cr19         O22   1.790       .  S
Cr20         O22   1.766       .  S
Cr21         O22   1.756       .  S
O23         Cr41   1.975       .  S
O23          C31   1.270       .  A
O24         Cr41   1.945       .  S
O24          C25   1.222       .  A
C25          O26   1.262       .  A
C25        C1273   1.494       .  S
O26         Cr42   2.089       .  S
O27         Cr42   2.040       .  S
O27          C28   1.273       .  A
C28          O29   1.268       .  A
C28        C1288   1.527       .  S
O29         Cr43   2.017       .  S
O30         Cr43   2.007       .  S
O30          C31   1.280       .  A
C31        C1297   1.465       .  S
O32         Cr41   1.965       .  S
O32          C40   1.239       .  A
O33         Cr41   1.959       .  S
O33          C34   1.282       .  A
C34          O35   1.295       .  A
C34        C1261   1.474       .  S
O35         Cr42   2.066       .  S
O36         Cr42   2.025       .  S
O36          C37   1.273       .  A
C37          O38   1.257       .  A
C37        C1312   1.467       .  S
O38         Cr43   1.929       .  S
O39         Cr43   2.003       .  S
O39          C40   1.249       .  A
C40        C1384   1.473       .  S
Cr41         O44   1.767       .  S
Cr42         O44   1.761       .  S
Cr43         O44   1.746       .  S
O45         Cr63   2.012       .  S
O45          C53   1.274       .  A
O46         Cr63   1.952       .  S
O46          C47   1.238       .  A
C47          O48   1.266       .  A
C47        C1228   1.494       .  S
O48         Cr64   2.042       .  S
O49         Cr64   2.043       .  S
O49          C50   1.281       .  A
C50          O51   1.281       .  A
C50        C1252   1.536       .  S
O51         Cr65   2.059       .  S
O52         Cr65   1.906       .  S
O52          C53   1.250       .  A
C53        C1240   1.456       .  S
O54         Cr63   1.948       .  S
O54          C62   1.243       .  A
O55         Cr63   2.039       .  S
O55          C56   1.282       .  A
C56          O57   1.270       .  A
C56        C1216   1.503       .  S
O57         Cr64   1.989       .  S
O58         Cr64   2.033       .  S
O58          C59   1.272       .  A
C59          O60   1.249       .  A
C59        C1369   1.473       .  S
O60         Cr65   1.947       .  S
O61         Cr65   2.010       .  S
O61          C62   1.263       .  A
C62        C1309   1.465       .  S
Cr63         O66   1.753       .  S
Cr64         O66   1.776       .  S
Cr65         O66   1.754       .  S
O67         Cr85   2.017       .  S
O67          C75   1.272       .  A
O68         Cr85   1.958       .  S
O68          C69   1.248       .  A
C69          O70   1.278       .  A
C69        C1177   1.509       .  S
O70         Cr86   2.065       .  S
O71         Cr86   2.029       .  S
O71          C72   1.277       .  A
C72          O73   1.283       .  A
C72        C1249   1.542       .  S
O73         Cr87   2.076       .  S
O74         Cr87   1.890       .  S
O74          C75   1.257       .  A
C75        C1360   1.452       .  S
O76         Cr85   1.964       .  S
O76          C84   1.247       .  A
O77         Cr85   2.021       .  S
O77          C78   1.273       .  A
C78          O79   1.261       .  A
C78        C1165   1.487       .  S
O79         Cr86   1.966       .  S
O80         Cr86   2.063       .  S
O80          C81   1.277       .  A
C81          O82   1.245       .  A
C81        C1201   1.475       .  S
O82         Cr87   1.921       .  S
O83         Cr87   2.006       .  S
O83          C84   1.263       .  A
C84        C1189   1.465       .  S
Cr85         O88   1.767       .  S
Cr86         O88   1.772       .  S
Cr87         O88   1.747       .  S
O89        Cr107   1.985       .  S
O89          C97   1.268       .  A
O90        Cr107   1.955       .  S
O90          C91   1.227       .  A
C91          O92   1.265       .  A
C91        C1141   1.511       .  S
O92        Cr108   2.096       .  S
O93        Cr108   2.054       .  S
O93          C94   1.275       .  A
C94          O95   1.270       .  A
C94        C1348   1.546       .  S
O95        Cr109   2.026       .  S
O96        Cr109   1.991       .  S
O96          C97   1.270       .  A
C97        C1300   1.470       .  S
O98        Cr107   1.955       .  S
O98         C106   1.240       .  A
O99        Cr107   1.973       .  S
O99         C100   1.279       .  A
C100        O101   1.295       .  A
C100       C1129   1.500       .  S
O101       Cr108   2.076       .  S
O102       Cr108   2.017       .  S
O102        C103   1.272       .  A
C103        O104   1.260       .  A
C103       C1192   1.473       .  S
O104       Cr109   1.943       .  S
O105       Cr109   2.009       .  S
O105        C106   1.256       .  A
C106       C1153   1.471       .  S
Cr107       O110   1.778       .  S
Cr108       O110   1.771       .  S
Cr109       O110   1.759       .  S
O111       Cr129   2.039       .  S
O111        C119   1.281       .  A
O112       Cr129   1.922       .  S
O112        C113   1.243       .  A
C113        O114   1.280       .  A
C113       C1117   1.496       .  S
O114       Cr130   2.066       .  S
O115       Cr130   2.037       .  S
O115        C116   1.276       .  A
C116        O117   1.275       .  A
C116       C1285   1.523       .  S
O117       Cr131   2.049       .  S
O118       Cr131   1.899       .  S
O118        C119   1.252       .  A
C119       C1237   1.443       .  S
O120       Cr129   1.942       .  S
O120        C128   1.230       .  A
O121       Cr129   2.008       .  S
O121        C122   1.269       .  A
C122        O123   1.265       .  A
C122       C1105   1.514       .  S
O123       Cr130   2.000       .  S
O124       Cr130   2.038       .  S
O124        C125   1.279       .  A
C125        O126   1.260       .  A
C125       C1156   1.471       .  S
O126       Cr131   1.941       .  S
O127       Cr131   2.039       .  S
O127        C128   1.259       .  A
C128       C1204   1.469       .  S
Cr129       O132   1.756       .  S
Cr130       O132   1.762       .  S
Cr131       O132   1.778       .  S
O133       Cr151   1.969       .  S
O133        C141   1.279       .  A
O134       Cr151   1.917       .  S
O134        C135   1.228       .  A
C135        O136   1.260       .  A
C135       C1144   1.474       .  S
O136       Cr152   2.062       .  S
O137       Cr152   2.079       .  S
O137        C138   1.285       .  A
C138        O139   1.274       .  A
C138       C1057   1.560       .  S
O139       Cr153   2.028       .  S
O140       Cr153   1.992       .  S
O140        C141   1.273       .  A
C141       C1072   1.451       .  S
O142       Cr151   1.947       .  S
O142        C150   1.238       .  A
O143       Cr151   1.955       .  S
O143        C144   1.280       .  A
C144        O145   1.300       .  A
C144       C1045   1.483       .  S
O145       Cr152   2.075       .  S
O146       Cr152   1.989       .  S
O146        C147   1.262       .  A
C147        O148   1.258       .  A
C147       C1081   1.468       .  S
O148       Cr153   1.949       .  S
O149       Cr153   2.023       .  S
O149        C150   1.256       .  A
C150       C1096   1.473       .  S
Cr151       O154   1.765       .  S
Cr152       O154   1.761       .  S
Cr153       O154   1.747       .  S
O155       Cr173   1.962       .  S
O155        C163   1.273       .  A
O156       Cr173   1.935       .  S
O156        C157   1.219       .  A
C157        O158   1.265       .  A
C157       C1120   1.493       .  S
O158       Cr174   2.098       .  S
O159       Cr174   2.073       .  S
O159        C160   1.282       .  A
C160        O161   1.269       .  A
C160       C1024   1.550       .  S
O161       Cr175   2.032       .  S
O162       Cr175   2.012       .  S
O162        C163   1.284       .  A
C163       C1012   1.466       .  S
O164       Cr173   1.930       .  S
O164        C172   1.233       .  A
O165       Cr173   1.955       .  S
O165        C166   1.281       .  A
C166        O167   1.302       .  A
C166        C997   1.481       .  S
O167       Cr174   2.092       .  S
O168       Cr174   2.012       .  S
O168        C169   1.272       .  A
C169        O170   1.262       .  A
C169       C1093   1.470       .  S
O170       Cr175   1.939       .  S
O171       Cr175   2.018       .  S
O171        C172   1.252       .  A
C172       C1033   1.472       .  S
Cr173       O176   1.755       .  S
Cr174       O176   1.753       .  S
Cr175       O176   1.745       .  S
O177       Cr195   1.946       .  S
O177        C185   1.267       .  A
O178       Cr195   1.958       .  S
O178        C179   1.237       .  A
C179        O180   1.268       .  A
C179       C1180   1.505       .  S
O180       Cr196   2.084       .  S
O181       Cr196   2.086       .  S
O181        C182   1.283       .  A
C182        O183   1.264       .  A
C182        C985   1.551       .  S
O183       Cr197   1.993       .  S
O184       Cr197   2.012       .  S
O184        C185   1.279       .  A
C185        C973   1.462       .  S
O186       Cr195   1.972       .  S
O186        C194   1.242       .  A
O187       Cr195   1.944       .  S
O187        C188   1.271       .  A
C188        O189   1.297       .  A
C188        C961   1.488       .  S
O189       Cr196   2.080       .  S
O190       Cr196   2.005       .  S
O190        C191   1.267       .  A
C191        O192   1.257       .  A
C191       C1036   1.465       .  S
O192       Cr197   1.931       .  S
O193       Cr197   1.985       .  S
O193        C194   1.246       .  A
C194       C1084   1.469       .  S
Cr195       O198   1.788       .  S
Cr196       O198   1.771       .  S
Cr197       O198   1.750       .  S
O199       Cr217   1.939       .  S
O199        C207   1.273       .  A
O200       Cr217   1.943       .  S
O200        C201   1.239       .  A
C201        O202   1.257       .  A
C201       C1276   1.472       .  S
O202       Cr218   2.033       .  S
O203       Cr218   2.057       .  S
O203        C204   1.278       .  A
C204        O205   1.276       .  A
C204       C1021   1.547       .  S
O205       Cr219   2.051       .  S
O206       Cr219   2.004       .  S
O206        C207   1.275       .  A
C207       C1069   1.449       .  S
O208       Cr217   1.925       .  S
O208        C216   1.237       .  A
O209       Cr217   1.955       .  S
O209        C210   1.268       .  A
C210        O211   1.294       .  A
C210        C928   1.497       .  S
O211       Cr218   2.078       .  S
O212       Cr218   1.988       .  S
O212        C213   1.259       .  A
C213        O214   1.259       .  A
C213        C937   1.464       .  S
O214       Cr219   1.943       .  S
O215       Cr219   2.036       .  S
O215        C216   1.258       .  A
C216        C949   1.479       .  S
Cr217       O220   1.778       .  S
Cr218       O220   1.775       .  S
Cr219       O220   1.770       .  S
O221       Cr239   1.974       .  S
O221        C229   1.257       .  A
O222       Cr239   1.947       .  S
O222        C223   1.231       .  A
C223        O224   1.281       .  A
C223       C1336   1.514       .  S
O224       Cr240   2.112       .  S
O225       Cr240   2.104       .  S
O225        C226   1.287       .  A
C226        O227   1.266       .  A
C226       C1060   1.559       .  S
O227       Cr241   1.997       .  S
O228       Cr241   1.985       .  S
O228        C229   1.265       .  A
C229        C976   1.462       .  S
O230       Cr239   1.958       .  S
O230        C238   1.246       .  A
O231       Cr239   1.951       .  S
O231        C232   1.270       .  A
C232        O233   1.290       .  A
C232        C901   1.477       .  S
O233       Cr240   2.069       .  S
O234       Cr240   2.005       .  S
O234        C235   1.266       .  A
C235        O236   1.258       .  A
C235        C952   1.465       .  S
O236       Cr241   1.942       .  S
O237       Cr241   1.994       .  S
O237        C238   1.256       .  A
C238        C913   1.466       .  S
Cr239       O242   1.783       .  S
Cr240       O242   1.764       .  S
Cr241       O242   1.762       .  S
O243       Cr261   1.977       .  S
O243        C251   1.271       .  A
O244       Cr261   1.951       .  S
O244        C245   1.228       .  A
C245        O246   1.263       .  A
C245       C1225   1.498       .  S
O246       Cr262   2.083       .  S
O247       Cr262   2.066       .  S
O247        C248   1.278       .  A
C248        O249   1.270       .  A
C248        C988   1.553       .  S
O249       Cr263   2.024       .  S
O250       Cr263   1.990       .  S
O250        C251   1.271       .  A
C251       C1009   1.467       .  S
O252       Cr261   1.959       .  S
O252        C260   1.241       .  A
O253       Cr261   1.964       .  S
O253        C254   1.277       .  A
C254        O255   1.296       .  A
C254        C892   1.492       .  S
O255       Cr262   2.075       .  S
O256       Cr262   1.995       .  S
O256        C257   1.267       .  A
C257        O258   1.259       .  A
C257        C916   1.462       .  S
O258       Cr263   1.935       .  S
O259       Cr263   2.008       .  S
O259        C260   1.254       .  A
C260        C940   1.472       .  S
Cr261       O264   1.779       .  S
Cr262       O264   1.771       .  S
Cr263       O264   1.756       .  S
O265       Cr283   2.009       .  S
O265        C273   1.280       .  A
O266       Cr283   1.979       .  S
O266        C267   1.259       .  A
C267        O268   1.281       .  A
C267        C841   1.528       .  S
O268       Cr284   2.070       .  S
O269       Cr284   2.103       .  S
O269        C270   1.265       .  A
C270        O271   1.224       .  A
C270        C829   1.509       .  S
O271       Cr285   1.959       .  S
O272       Cr285   1.956       .  S
O272        C273   1.263       .  A
C273        C853   1.438       .  S
O274       Cr283   1.989       .  S
O274        C282   1.246       .  A
O275       Cr283   1.941       .  S
O275        C276   1.261       .  A
C276        O277   1.269       .  A
C276        C865   1.466       .  S
O277       Cr284   2.007       .  S
O278       Cr284   2.082       .  S
O278        C279   1.300       .  A
C279        O280   1.278       .  A
C279       C1168   1.479       .  S
O280       Cr285   1.943       .  S
O281       Cr285   1.980       .  S
O281        C282   1.242       .  A
C282        C880   1.469       .  S
Cr283       O286   1.742       .  S
Cr284       O286   1.763       .  S
Cr285       O286   1.769       .  S
O287       Cr305   1.938       .  S
O287        C295   1.251       .  A
O288       Cr305   2.061       .  S
O288        C289   1.286       .  A
C289        O290   1.289       .  A
C289        C793   1.547       .  S
O290       Cr306   2.049       .  S
O291       Cr306   2.070       .  S
O291        C292   1.273       .  A
C292        O293   1.238       .  A
C292        C784   1.507       .  S
O293       Cr307   1.946       .  S
O294       Cr307   1.993       .  S
O294        C295   1.268       .  A
C295        C808   1.467       .  S
O296       Cr305   2.013       .  S
O296        C304   1.266       .  A
O297       Cr305   1.957       .  S
O297        C298   1.249       .  A
C298        O299   1.266       .  A
C298        C877   1.475       .  S
O299       Cr306   2.030       .  S
O300       Cr306   2.005       .  S
O300        C301   1.271       .  A
C301        O302   1.272       .  A
C301       C1132   1.504       .  S
O302       Cr307   2.011       .  S
O303       Cr307   1.940       .  S
O303        C304   1.242       .  A
C304        C817   1.463       .  S
Cr305       O308   1.764       .  S
Cr306       O308   1.784       .  S
Cr307       O308   1.763       .  S
O309       Cr327   1.925       .  S
O309        C317   1.257       .  A
O310       Cr327   2.058       .  S
O310        C311   1.279       .  A
C311        O312   1.288       .  A
C311        C772   1.562       .  S
O312       Cr328   2.076       .  S
O313       Cr328   2.090       .  S
O313        C314   1.280       .  A
C314        O315   1.237       .  A
C314        C748   1.504       .  S
O315       Cr329   1.940       .  S
O316       Cr329   2.012       .  S
O316        C317   1.269       .  A
C317        C757   1.459       .  S
O318       Cr327   2.005       .  S
O318        C326   1.265       .  A
O319       Cr327   1.929       .  S
O319        C320   1.249       .  A
C320        O321   1.279       .  A
C320        C820   1.475       .  S
O321       Cr328   2.049       .  S
O322       Cr328   2.004       .  S
O322        C323   1.268       .  A
C323        O324   1.273       .  A
C323       C1108   1.513       .  S
O324       Cr329   2.034       .  S
O325       Cr329   1.962       .  S
O325        C326   1.248       .  A
C326        C868   1.462       .  S
Cr327       O330   1.752       .  S
Cr328       O330   1.776       .  S
Cr329       O330   1.763       .  S
O331       Cr349   1.998       .  S
O331        C339   1.270       .  A
O332       Cr349   2.002       .  S
O332        C333   1.264       .  A
C333        O334   1.282       .  A
C333        C796   1.538       .  S
O334       Cr350   2.083       .  S
O335       Cr350   2.073       .  S
O335        C336   1.273       .  A
C336        O337   1.245       .  A
C336        C709   1.501       .  S
O337       Cr351   1.957       .  S
O338       Cr351   1.945       .  S
O338        C339   1.260       .  A
C339        C856   1.442       .  S
O340       Cr349   1.990       .  S
O340        C348   1.251       .  A
O341       Cr349   1.948       .  S
O341        C342   1.261       .  A
C342        O343   1.264       .  A
C342        C733   1.462       .  S
O343       Cr350   1.994       .  S
O344       Cr350   2.059       .  S
O344        C345   1.286       .  A
C345        O346   1.271       .  A
C345       C1321   1.487       .  S
O346       Cr351   1.960       .  S
O347       Cr351   1.978       .  S
O347        C348   1.247       .  A
C348        C724   1.473       .  S
Cr349       O352   1.768       .  S
Cr350       O352   1.775       .  S
Cr351       O352   1.789       .  S
O353       Cr371   1.992       .  S
O353        C361   1.270       .  A
O354       Cr371   2.027       .  S
O354        C355   1.273       .  A
C355        O356   1.290       .  A
C355        C769   1.567       .  S
O356       Cr372   2.098       .  S
O357       Cr372   2.102       .  S
O357        C358   1.272       .  A
C358        O359   1.222       .  A
C358        C685   1.509       .  S
O359       Cr373   1.933       .  S
O360       Cr373   1.989       .  S
O360        C361   1.274       .  A
C361        C805   1.460       .  S
O362       Cr371   2.010       .  S
O362        C370   1.255       .  A
O363       Cr371   1.933       .  S
O363        C364   1.258       .  A
C364        O365   1.265       .  A
C364        C700   1.464       .  S
O365       Cr372   2.001       .  S
O366       Cr372   2.080       .  S
O366        C367   1.297       .  A
C367        O368   1.273       .  A
C367       C1264   1.471       .  S
O368       Cr373   1.942       .  S
O369       Cr373   1.953       .  S
O369        C370   1.245       .  A
C370        C736   1.473       .  S
Cr371       O374   1.755       .  S
Cr372       O374   1.768       .  S
Cr373       O374   1.774       .  S
O375       Cr393   1.993       .  S
O375        C383   1.275       .  A
O376       Cr393   2.012       .  S
O376        C377   1.271       .  A
C377        O378   1.277       .  A
C377        C844   1.533       .  S
O378       Cr394   2.048       .  S
O379       Cr394   2.086       .  S
O379        C380   1.259       .  A
C380        O381   1.224       .  A
C380        C673   1.499       .  S
O381       Cr395   1.942       .  S
O382       Cr395   2.003       .  S
O382        C383   1.280       .  A
C383        C760   1.477       .  S
O384       Cr393   2.014       .  S
O384        C392   1.254       .  A
O385       Cr393   1.935       .  S
O385        C386   1.258       .  A
C386        O387   1.268       .  A
C386        C721   1.464       .  S
O387       Cr394   2.007       .  S
O388       Cr394   2.084       .  S
O388        C389   1.303       .  A
C389        O390   1.284       .  A
C389       C1213   1.511       .  S
O390       Cr395   1.975       .  S
O391       Cr395   1.952       .  S
O391        C392   1.239       .  A
C392        C697   1.470       .  S
Cr393       O396   1.741       .  S
Cr394       O396   1.756       .  S
Cr395       O396   1.762       .  S
O397       Cr415   1.983       .  S
O397        C405   1.267       .  A
O398       Cr415   2.008       .  S
O398        C399   1.268       .  A
C399        O400   1.282       .  A
C399        C628   1.543       .  S
O400       Cr416   2.072       .  S
O401       Cr416   2.109       .  S
O401        C402   1.270       .  A
C402        O403   1.226       .  A
C402        C781   1.511       .  S
O403       Cr417   1.953       .  S
O404       Cr417   1.997       .  S
O404        C405   1.265       .  A
C405        C640   1.457       .  S
O406       Cr415   1.986       .  S
O406        C414   1.251       .  A
O407       Cr415   1.931       .  S
O407        C408   1.256       .  A
C408        O409   1.269       .  A
C408        C652   1.466       .  S
O409       Cr416   2.013       .  S
O410       Cr416   2.076       .  S
O410        C411   1.296       .  A
C411        O412   1.278       .  A
C411       C1048   1.486       .  S
O412       Cr417   1.960       .  S
O413       Cr417   1.989       .  S
O413        C414   1.249       .  A
C414        C661   1.470       .  S
Cr415       O418   1.752       .  S
Cr416       O418   1.764       .  S
Cr417       O418   1.780       .  S
O419       Cr437   1.974       .  S
O419        C427   1.271       .  A
O420       Cr437   2.031       .  S
O420        C421   1.273       .  A
C421        O422   1.277       .  A
C421        C592   1.533       .  S
O422       Cr438   2.043       .  S
O423       Cr438   2.097       .  S
O423        C424   1.259       .  A
C424        O425   1.221       .  A
C424        C745   1.506   1_655  S
O425       Cr439   1.945       .  S
O426       Cr439   1.999       .  S
O426        C427   1.277       .  A
C427        C601   1.453       .  S
O428       Cr437   2.017       .  S
O428        C436   1.259       .  A
O429       Cr437   1.953       .  S
O429        C430   1.261       .  A
C430        O431   1.268       .  A
C430        C664   1.469       .  S
O431       Cr438   2.004       .  S
O432       Cr438   2.086       .  S
O432        C433   1.302       .  A
C433        O434   1.280       .  A
C433       C1000   1.485       .  S
O434       Cr439   1.947       .  S
O435       Cr439   1.955       .  S
O435        C436   1.242       .  A
C436        C613   1.475       .  S
Cr437       O440   1.744       .  S
Cr438       O440   1.757       .  S
Cr439       O440   1.766       .  S
O441       Cr459   1.913       .  S
O441        C449   1.256       .  A
O442       Cr459   2.064       .  S
O442        C443   1.281       .  A
C443        O444   1.281       .  A
C443        C577   1.535       .  S
O444       Cr460   2.041       .  S
O445       Cr460   2.066       .  S
O445        C446   1.275       .  A
C446        O447   1.239       .  A
C446        C832   1.501       .  S
O447       Cr461   1.948       .  S
O448       Cr461   2.020       .  S
O448        C449   1.273       .  A
C449        C565   1.462       .  S
O450       Cr459   2.012       .  S
O450        C458   1.264       .  A
O451       Cr459   1.942       .  S
O451        C452   1.250       .  A
C452        O453   1.276       .  A
C452        C616   1.471       .  S
O453       Cr460   2.045       .  S
O454       Cr460   1.979       .  S
O454        C455   1.264       .  A
C455        O456   1.277       .  A
C455        C964   1.498       .  S
O456       Cr461   2.034       .  S
O457       Cr461   1.955       .  S
O457        C458   1.244       .  A
C458        C649   1.465       .  S
Cr459       O462   1.751       .  S
Cr460       O462   1.771       .  S
Cr461       O462   1.758       .  S
O463       Cr481   1.937       .  S
O463        C471   1.256       .  A
O464       Cr481   2.052       .  S
O464        C465   1.279       .  A
C465        O466   1.282       .  A
C465        C589   1.539       .  S
O466       Cr482   2.042       .  S
O467       Cr482   2.093       .  S
O467        C468   1.280       .  A
C468        O469   1.238       .  A
C468        C688   1.507       .  S
O469       Cr483   1.946       .  S
O470       Cr483   2.005       .  S
O470        C471   1.270       .  A
C471        C637   1.474       .  S
O472       Cr481   2.000       .  S
O472        C480   1.262       .  A
O473       Cr481   1.941       .  S
O473        C474   1.251       .  A
C474        O475   1.277       .  A
C474        C541   1.476       .  S
O475       Cr482   2.047       .  S
O476       Cr482   1.973       .  S
O476        C477   1.261       .  A
C477        O478   1.279       .  A
C477        C925   1.509       .  S
O478       Cr483   2.043       .  S
O479       Cr483   1.964       .  S
O479        C480   1.247       .  A
C480        C553   1.461       .  S
Cr481       O484   1.769       .  S
Cr482       O484   1.779       .  S
Cr483       O484   1.766       .  S
O485       Cr503   2.000       .  S
O485        C493   1.280       .  A
O486       Cr503   2.033       .  S
O486        C487   1.274       .  A
C487        O488   1.282       .  A
C487        C625   1.548       .  S
O488       Cr504   2.059       .  S
O489       Cr504   2.130       .  S
O489        C490   1.267       .  A
C490        O491   1.212       .  A
C490        C712   1.517       .  S
O491       Cr505   1.945       .  S
O492       Cr505   1.996       .  S
O492        C493   1.281       .  A
C493        C568   1.468       .  S
O494       Cr503   2.044       .  S
O494        C502   1.258       .  A
O495       Cr503   1.949       .  S
O495        C496   1.263       .  A
C496        O497   1.274       .  A
C496        C556   1.472       .  S
O497       Cr504   2.020       .  S
O498       Cr504   2.090       .  S
O498        C499   1.304       .  A
C499        O500   1.286       .  A
C499        C904   1.481       .  S
O500       Cr505   1.959       .  S
O501       Cr505   1.930       .  S
O501        C502   1.230       .  A
C502        C529   1.479       .  S
Cr503       O506   1.736       .  S
Cr504       O506   1.741       .  S
Cr505       O506   1.741       .  S
O507       Cr525   1.923       .  S
O507        C515   1.256       .  A
O508       Cr525   2.064       .  S
O508        C509   1.283       .  A
C509        O510   1.281       .  A
C509        C580   1.543       .  S
O510       Cr526   2.040       .  S
O511       Cr526   2.061       .  S
O511        C512   1.275       .  A
C512        O513   1.244       .  A
C512        C676   1.500       .  S
O513       Cr527   1.956       .  S
O514       Cr527   2.000       .  S
O514        C515   1.267       .  A
C515        C604   1.463       .  S
O516       Cr525   2.005       .  S
O516        C524   1.264       .  A
O517       Cr525   1.943       .  S
O517        C518   1.252       .  A
C518        O519   1.274       .  A
C518        C532   1.475       .  S
O519       Cr526   2.036       .  S
O520       Cr526   1.990       .  S
O520        C521   1.265       .  A
C521        O522   1.272       .  A
C521        C889   1.499       .  S
O522       Cr527   2.017       .  S
O523       Cr527   1.957       .  S
O523        C524   1.246       .  A
C524        C544   1.461       .  S
Cr525       O528   1.761       .  S
Cr526       O528   1.772       .  S
Cr527       O528   1.762       .  S
C529        C530   1.401       .  A
C529        C534   1.426       .  A
C530        C531   1.402       .  A
C530        H535   1.083       .  S
C531        C532   1.414       .  A
C531        O536   1.369       .  S
C532        C533   1.392       .  A
C533        C534   1.396       .  A
C533        H537   1.084       .  S
C534        O538   1.373       .  S
O536        H540   0.991       .  S
O538        H539   0.993       .  S
C541        C542   1.400       .  A
C541        C546   1.418       .  A
C542        C543   1.397       .  A
C542        H547   1.084       .  S
C543        C544   1.410       .  A
C543        O548   1.372       .  S
C544        C545   1.394       .  A
C545        C546   1.396       .  A
C545        H549   1.084       .  S
C546        O550   1.375       .  S
O548        H552   0.991       .  S
O550        H551   0.993       .  S
C553        C554   1.399       .  A
C553        C558   1.409       .  A
C554        C555   1.397       .  A
C554        H559   1.084       .  S
C555        C556   1.413       .  A
C555        O560   1.371       .  S
C556        C557   1.400       .  A
C557        C558   1.398       .  A
C557        H561   1.084       .  S
C558        O562   1.371       .  S
O560        H564   0.991       .  S
O562        H563   0.991       .  S
C565        C566   1.404       .  A
C565        C570   1.404       .  A
C566        C567   1.392       .  A
C566        H571   1.085       .  S
C567        C568   1.408       .  A
C567        O572   1.373       .  S
C568        C569   1.407       .  A
C569        C570   1.394       .  A
C569        H573   1.082       .  S
C570        O574   1.370       .  S
O572        H576   0.992       .  S
O574        H575   0.992       .  S
C577        C578   1.414       .  A
C577        C582   1.415       .  A
C578        C579   1.427       .  A
C578        H583   1.084       .  S
C579        C580   1.420       .  A
C579        O584   1.371       .  S
C580        C581   1.418       .  A
C581        C582   1.426       .  A
C581        H585   1.083       .  S
C582        O586   1.369       .  S
O584        H588   0.992       .  S
O586        H587   0.991       .  S
C589        C590   1.416       .  A
C589        C594   1.421       .  A
C590        C591   1.431       .  A
C590        H595   1.083       .  S
C591        C592   1.420       .  A
C591        O596   1.370       .  S
C592        C593   1.408       .  A
C593        C594   1.417       .  A
C593        H597   1.082       .  S
C594        O598   1.372       .  S
O596        H600   0.992       .  S
O598        H599   0.991       .  S
C601        C602   1.407       .  A
C601        C606   1.402       .  A
C602        C603   1.401       .  A
C602        H607   1.083       .  S
C603        C604   1.408       .  A
C603        O608   1.373       .  S
C604        C605   1.404       .  A
C605        C606   1.377       .  A
C605        H609   1.084       .  S
C606        O610   1.373       .  S
O608        H612   0.988       .  S
O610        H611   0.992       .  S
C613        C614   1.398       .  A
C613        C618   1.418       .  A
C614        C615   1.401       .  A
C614        H619   1.084       .  S
C615        C616   1.415       .  A
C615        O620   1.375       .  S
C616        C617   1.396       .  A
C617        C618   1.395       .  A
C617        H621   1.084       .  S
C618        O622   1.372       .  S
O620        H624   0.993       .  S
O622        H623   0.992       .  S
C625        C626   1.419       .  A
C625        C630   1.423       .  A
C626        C627   1.434       .  A
C626        H631   1.083       .  S
C627        C628   1.421       .  A
C627        O632   1.370       .  S
C628        C629   1.411       .  A
C629        C630   1.421       .  A
C629        H633   1.082       .  S
C630        O634   1.373       .  S
O632        H636   0.992       .  S
O634        H635   0.991       .  S
C637        C638   1.403       .  A
C637        C642   1.403       .  A
C638        C639   1.379       .  A
C638        H643   1.068       .  S
C639        C640   1.394       .  A
C639        O644   1.375       .  S
C640        C641   1.411       .  A
C641        C642   1.406       .  A
C641        H645   1.081       .  S
C642        O646   1.372       .  S
O644        H648   0.992       .  S
O646        H647   0.991       .  S
C649        C650   1.396       .  A
C649        C654   1.413       .  A
C650        C651   1.397       .  A
C650        H655   1.084       .  S
C651        C652   1.414       .  A
C651        O656   1.375       .  S
C652        C653   1.396       .  A
C653        C654   1.398       .  A
C653        H657   1.084       .  S
C654        O658   1.371       .  S
O656        H660   0.992       .  S
O658        H659   0.992       .  S
C661        C662   1.401       .  A
C661        C666   1.412       .  A
C662        C663   1.393       .  A
C662        H667   1.084       .  S
C663        C664   1.410       .  A
C663        O668   1.372       .  S
C664        C665   1.401       .  A
C665        C666   1.397       .  A
C665        H669   1.084       .  S
C666        O670   1.371       .  S
O668        H672   0.991       .  S
O670        H671   0.991       .  S
C673        C674   1.399       .  A
C673        C678   1.424       .  A
C674        C675   1.413   1_455  A
C674        H679   1.083       .  S
C675        C676   1.423       .  A
C675        O680   1.368       .  S
C676        C677   1.397   1_655  A
C677        C678   1.401       .  A
C677        H681   1.084       .  S
C678        O682   1.373       .  S
O680        H684   0.991       .  S
O682        H683   0.992       .  S
C685        C686   1.396       .  A
C685        C690   1.431       .  A
C686        C687   1.416       .  A
C686        H691   1.083       .  S
C687        C688   1.426       .  A
C687        O692   1.364       .  S
C688        C689   1.394       .  A
C689        C690   1.406       .  A
C689        H693   1.084       .  S
C690        O694   1.372       .  S
O692        H696   0.992       .  S
O694        H695   0.991       .  S
C697        C698   1.411       .  A
C697        C702   1.405       .  A
C698        C699   1.395       .  A
C698        H703   1.083       .  S
C699        C700   1.397       .  A
C699        O704   1.371       .  S
C700        C701   1.410       .  A
C701        C702   1.398       .  A
C701        H705   1.083       .  S
C702        O706   1.373       .  S
O704        H708   0.991       .  S
O706        H707   0.992       .  S
C709        C710   1.391   1_565  A
C709        C714   1.424       .  A
C710        C711   1.401       .  A
C710        H715   1.085       .  S
C711        C712   1.432       .  A
C711        O716   1.369       .  S
C712        C713   1.401       .  A
C713        C714   1.422   1_545  A
C713        H717   1.083       .  S
C714        O718   1.363       .  S
O716        H720   0.992       .  S
O718        H719   0.992       .  S
C721        C722   1.398       .  A
C721        C726   1.410       .  A
C722        C723   1.397       .  A
C722        H727   1.084       .  S
C723        C724   1.414       .  A
C723        O728   1.371       .  S
C724        C725   1.402       .  A
C725        C726   1.396       .  A
C725        H729   1.084       .  S
C726        O730   1.374       .  S
O728        H732   0.992       .  S
O730        H731   0.992       .  S
C733        C734   1.409       .  A
C733        C738   1.399       .  A
C734        C735   1.395       .  A
C734        H739   1.084       .  S
C735        C736   1.403       .  A
C735        O740   1.372       .  S
C736        C737   1.410       .  A
C737        C738   1.395       .  A
C737        H741   1.084       .  S
C738        O742   1.372       .  S
O740        H744   0.992       .  S
O742        H743   0.992       .  S
C745        C746   1.419       .  A
C745        C750   1.402       .  A
C746        C747   1.403       .  A
C746        H751   1.083   1_455  S
C747        C748   1.404       .  A
C747        O752   1.371       .  S
C748        C749   1.423       .  A
C749        C750   1.416       .  A
C749        H753   1.080       .  S
C750        O754   1.371       .  S
O752        H756   0.992       .  S
O754        H755   0.992       .  S
C757        C758   1.399       .  A
C757        C762   1.404       .  A
C758        C759   1.398       .  A
C758        H763   1.081       .  S
C759        C760   1.411       .  A
C759        O764   1.370       .  S
C760        C761   1.409       .  A
C761        C762   1.390       .  A
C761        H765   1.083       .  S
C762        O766   1.375       .  S
O764        H768   0.992       .  S
O766        H767   0.991       .  S
C769        C770   1.416       .  A
C769        C774   1.428       .  A
C770        C771   1.425       .  A
C770        H775   1.080       .  S
C771        C772   1.418       .  A
C771        O776   1.368       .  S
C772        C773   1.424       .  A
C773        C774   1.447       .  A
C773        H777   1.083       .  S
C774        O778   1.370       .  S
O776        H780   0.992       .  S
O778        H779   0.992       .  S
C781        C782   1.418       .  A
C781        C786   1.406       .  A
C782        C783   1.397       .  A
C782        H787   1.082       .  S
C783        C784   1.403       .  A
C783        O788   1.373       .  S
C784        C785   1.424       .  A
C785        C786   1.422       .  A
C785        H789   1.082       .  S
C786        O790   1.371       .  S
O788        H792   0.992       .  S
O790        H791   0.992       .  S
C793        C794   1.420       .  A
C793        C798   1.425       .  A
C794        C795   1.435       .  A
C794        H799   1.083       .  S
C795        C796   1.421       .  A
C795        O800   1.370       .  S
C796        C797   1.409       .  A
C797        C798   1.417       .  A
C797        H801   1.081       .  S
C798        O802   1.372       .  S
O800        H804   0.991       .  S
O802        H803   0.992       .  S
C805        C806   1.401       .  A
C805        C810   1.407       .  A
C806        C807   1.388       .  A
C806        H811   1.084       .  S
C807        C808   1.413       .  A
C807        O812   1.373       .  S
C808        C809   1.397       .  A
C809        C810   1.396       .  A
C809        H813   1.083       .  S
C810        O814   1.373       .  S
O812        H816   0.991       .  S
O814        H815   0.992       .  S
C817        C818   1.393       .  A
C817        C822   1.414       .  A
C818        C819   1.397       .  A
C818        H823   1.084       .  S
C819        C820   1.419       .  A
C819        O824   1.376       .  S
C820        C821   1.398       .  A
C821        C822   1.396       .  A
C821        H825   1.084       .  S
C822        O826   1.372       .  S
O824        H828   0.993       .  S
O826        H827   0.992       .  S
C829        C830   1.418       .  A
C829        C834   1.404   1_565  A
C830        C831   1.395   1_565  A
C830        H835   1.083       .  S
C831        C832   1.401       .  A
C831        O836   1.373       .  S
C832        C833   1.424       .  A
C833        C834   1.421       .  A
C833        H837   1.082       .  S
C834        O838   1.370       .  S
O836        H840   0.992       .  S
O838        H839   0.991       .  S
C841        C842   1.415       .  A
C841        C846   1.418       .  A
C842        C843   1.432       .  A
C842        H847   1.083       .  S
C843        C844   1.422       .  A
C843        O848   1.370       .  S
C844        C845   1.410       .  A
C845        C846   1.410       .  A
C845        H849   1.083       .  S
C846        O850   1.375       .  S
O848        H852   0.992       .  S
O850        H851   0.992       .  S
C853        C854   1.379       .  A
C853        C858   1.412       .  A
C854        C855   1.384       .  A
C854        H859   1.084       .  S
C855        C856   1.409       .  A
C855        O860   1.364       .  S
C856        C857   1.387       .  A
C857        C858   1.392       .  A
C857        H861   1.084       .  S
C858        O862   1.365       .  S
O860        H864   0.993       .  S
O862        H863   0.992       .  S
C865        C866   1.398       .  A
C865        C870   1.411       .  A
C866        C867   1.399       .  A
C866        H871   1.084       .  S
C867        C868   1.411       .  A
C867        O872   1.371       .  S
C868        C869   1.398       .  A
C869        C870   1.392       .  A
C869        H873   1.084       .  S
C870        O874   1.372       .  S
O872        H876   0.991       .  S
O874        H875   0.992       .  S
C877        C878   1.408       .  A
C877        C882   1.409       .  A
C878        C879   1.396       .  A
C878        H883   1.084       .  S
C879        C880   1.404       .  A
C879        O884   1.373       .  S
C880        C881   1.404       .  A
C881        C882   1.398       .  A
C881        H885   1.084       .  S
C882        O886   1.372       .  S
O884        H888   0.992       .  S
O886        H887   0.991       .  S
C889        C890   1.408       .  A
C889        C894   1.418       .  A
C890        C891   1.405       .  A
C890        H895   1.083       .  S
C891        C892   1.412   1_556  A
C891        O896   1.372       .  S
C892        C893   1.404       .  A
C893        C894   1.407   1_554  A
C893        H897   1.084       .  S
C894        O898   1.371       .  S
O896        H900   0.992       .  S
O898        H899   0.992       .  S
C901        C902   1.402       .  A
C901        C906   1.410       .  A
C902        C903   1.397   1_554  A
C902        H907   1.084       .  S
C903        C904   1.409       .  A
C903        O908   1.372       .  S
C904        C905   1.406       .  A
C905        C906   1.409   1_556  A
C905        H909   1.084       .  S
C906        O910   1.371       .  S
O908        H912   0.992       .  S
O910        H911   0.991       .  S
C913        C914   1.398       .  A
C913        C918   1.416       .  A
C914        C915   1.391       .  A
C914        H919   1.084       .  S
C915        C916   1.412       .  A
C915        O920   1.373       .  S
C916        C917   1.396       .  A
C917        C918   1.393       .  A
C917        H921   1.084       .  S
C918        O922   1.372       .  S
O920        H924   0.991       .  S
O922        H923   0.991       .  S
C925        C926   1.407       .  A
C925        C930   1.422       .  A
C926        C927   1.410   1_556  A
C926        H931   1.083       .  S
C927        C928   1.415       .  A
C927        O932   1.371       .  S
C928        C929   1.402       .  A
C929        C930   1.410   1_554  A
C929        H933   1.084       .  S
C930        O934   1.371       .  S
O932        H936   0.992       .  S
O934        H935   0.991       .  S
C937        C938   1.396       .  A
C937        C942   1.407       .  A
C938        C939   1.398       .  A
C938        H943   1.084       .  S
C939        C940   1.417       .  A
C939        O944   1.373       .  S
C940        C941   1.403       .  A
C941        C942   1.401       .  A
C941        H945   1.084       .  S
C942        O946   1.371       .  S
O944        H948   0.992       .  S
O946        H947   0.992       .  S
C949        C950   1.417       .  A
C949        C954   1.399       .  A
C950        C951   1.397       .  A
C950        H955   1.084       .  S
C951        C952   1.396       .  A
C951        O956   1.371       .  S
C952        C953   1.412       .  A
C953        C954   1.398       .  A
C953        H957   1.082       .  S
C954        O958   1.370       .  S
O956        H960   0.992       .  S
O958        H959   0.991       .  S
C961        C962   1.408       .  A
C961        C966   1.407       .  A
C962        C963   1.403       .  A
C962        H967   1.084       .  S
C963        C964   1.411       .  A
C963        O968   1.371       .  S
C964        C965   1.414       .  A
C965        C966   1.407       .  A
C965        H969   1.083       .  S
C966        O970   1.371       .  S
O968        H972   0.992       .  S
O970        H971   0.991       .  S
C973        C974   1.399       .  A
C973        C978   1.406       .  A
C974        C975   1.390       .  A
C974        H979   1.079       .  S
C975        C976   1.403       .  A
C975        O980   1.370       .  S
C976        C977   1.403       .  A
C977        C978   1.387       .  A
C977        H981   1.079       .  S
C978        O982   1.371       .  S
O980        H984   0.992       .  S
O982        H983   0.992       .  S
C985        C986   1.414       .  A
C985        C990   1.423       .  A
C986        C987   1.413       .  A
C986        H991   1.083       .  S
C987        C988   1.420       .  A
C987        O992   1.367       .  S
C988        C989   1.424       .  A
C989        C990   1.441       .  A
C989        H993   1.083       .  S
C990        O994   1.370       .  S
O992        H996   0.992       .  S
O994        H995   0.991       .  S
C997        C998   1.405       .  A
C997       C1002   1.408       .  A
C998        C999   1.411       .  A
C998       H1003   1.084       .  S
C999       C1000   1.413       .  A
C999       O1004   1.370       .  S
C1000      C1001   1.404       .  A
C1001      C1002   1.399       .  A
C1001      H1005   1.084       .  S
C1002      O1006   1.373       .  S
O1004      H1008   0.991       .  S
O1006      H1007   0.992       .  S
C1009      C1010   1.400       .  A
C1009      C1014   1.410       .  A
C1010      C1011   1.386       .  A
C1010      H1015   1.080       .  S
C1011      C1012   1.410       .  A
C1011      O1016   1.371       .  S
C1012      C1013   1.402       .  A
C1013      C1014   1.398       .  A
C1013      H1017   1.084       .  S
C1014      O1018   1.378       .  S
O1016      H1020   0.992       .  S
O1018      H1019   0.992       .  S
C1021      C1022   1.419       .  A
C1021      C1026   1.414       .  A
C1022      C1023   1.436       .  A
C1022      H1027   1.083       .  S
C1023      C1024   1.418       .  A
C1023      O1028   1.370       .  S
C1024      C1025   1.419       .  A
C1025      C1026   1.430       .  A
C1025      H1029   1.083       .  S
C1026      O1030   1.369       .  S
O1028      H1032   0.991       .  S
O1030      H1031   0.991       .  S
C1033      C1034   1.413       .  A
C1033      C1038   1.402       .  A
C1034      C1035   1.393       .  A
C1034      H1039   1.084       .  S
C1035      C1036   1.399       .  A
C1035      O1040   1.371       .  S
C1036      C1037   1.411       .  A
C1037      C1038   1.395       .  A
C1037      H1041   1.084       .  S
C1038      O1042   1.371       .  S
O1040      H1044   0.991       .  S
O1042      H1043   0.992       .  S
C1045      C1046   1.406       .  A
C1045      C1050   1.409       .  A
C1046      C1047   1.410       .  A
C1046      H1051   1.084       .  S
C1047      C1048   1.411       .  A
C1047      O1052   1.371       .  S
C1048      C1049   1.404       .  A
C1049      C1050   1.400       .  A
C1049      H1053   1.084       .  S
C1050      O1054   1.373       .  S
O1052      H1056   0.992       .  S
O1054      H1055   0.992       .  S
C1057      C1058   1.424       .  A
C1057      C1062   1.422       .  A
C1058      C1059   1.445       .  A
C1058      H1063   1.082       .  S
C1059      C1060   1.426       .  A
C1059      O1064   1.370       .  S
C1060      C1061   1.412       .  A
C1061      C1062   1.415       .  A
C1061      H1065   1.080       .  S
C1062      O1066   1.370       .  S
O1064      H1068   0.991       .  S
O1066      H1067   0.992       .  S
C1069      C1070   1.402       .  A
C1069      C1074   1.398       .  A
C1070      C1071   1.392       .  A
C1070      H1075   1.084       .  S
C1071      C1072   1.408       .  A
C1071      O1076   1.375       .  S
C1072      C1073   1.403       .  A
C1073      C1074   1.385       .  A
C1073      H1077   1.080       .  S
C1074      O1078   1.371       .  S
O1076      H1080   0.991       .  S
O1078      H1079   0.991       .  S
C1081      C1082   1.401       .  A
C1081      C1086   1.408       .  A
C1082      C1083   1.397       .  A
C1082      H1087   1.084       .  S
C1083      C1084   1.410       .  A
C1083      O1088   1.373       .  S
C1084      C1085   1.404       .  A
C1085      C1086   1.396       .  A
C1085      H1089   1.084       .  S
C1086      O1090   1.375       .  S
O1088      H1092   0.992       .  S
O1090      H1091   0.993       .  S
C1093      C1094   1.410       .  A
C1093      C1098   1.399       .  A
C1094      C1095   1.402       .  A
C1094      H1099   1.084       .  S
C1095      C1096   1.405       .  A
C1095      O1100   1.372       .  S
C1096      C1097   1.413       .  A
C1097      C1098   1.395       .  A
C1097      H1101   1.084       .  S
C1098      O1102   1.371       .  S
O1100      H1104   0.992       .  S
O1102      H1103   0.991       .  S
C1105      C1106   1.410       .  A
C1105      C1110   1.419       .  A
C1106      C1107   1.413       .  A
C1106      H1111   1.083       .  S
C1107      C1108   1.417       .  A
C1107      O1112   1.371       .  S
C1108      C1109   1.409       .  A
C1109      C1110   1.413       .  A
C1109      H1113   1.083       .  S
C1110      O1114   1.372       .  S
O1112      H1116   0.992       .  S
O1114      H1115   0.992       .  S
C1117      C1118   1.389       .  A
C1117      C1122   1.429       .  A
C1118      C1119   1.399   1_455  A
C1118      H1123   1.084       .  S
C1119      C1120   1.430       .  A
C1119      O1124   1.370       .  S
C1120      C1121   1.394   1_655  A
C1121      C1122   1.409       .  A
C1121      H1125   1.084       .  S
C1122      O1126   1.371       .  S
O1124      H1128   0.992       .  S
O1126      H1127   0.992       .  S
C1129      C1130   1.408       .  A
C1129      C1134   1.412       .  A
C1130      C1131   1.406       .  A
C1130      H1135   1.084       .  S
C1131      C1132   1.417       .  A
C1131      O1136   1.372       .  S
C1132      C1133   1.409       .  A
C1133      C1134   1.409       .  A
C1133      H1137   1.083       .  S
C1134      O1138   1.371       .  S
O1136      H1140   0.992       .  S
O1138      H1139   0.992       .  S
C1141      C1142   1.404       .  A
C1141      C1146   1.429       .  A
C1142      C1143   1.419       .  A
C1142      H1147   1.083       .  S
C1143      C1144   1.420       .  A
C1143      O1148   1.370       .  S
C1144      C1145   1.394       .  A
C1145      C1146   1.398       .  A
C1145      H1149   1.085       .  S
C1146      O1150   1.373       .  S
O1148      H1152   0.991       .  S
O1150      H1151   0.992       .  S
C1153      C1154   1.399       .  A
C1153      C1158   1.417       .  A
C1154      C1155   1.397       .  A
C1154      H1159   1.081       .  S
C1155      C1156   1.411       .  A
C1155      O1160   1.372       .  S
C1156      C1157   1.398       .  A
C1157      C1158   1.397       .  A
C1157      H1161   1.084       .  S
C1158      O1162   1.371       .  S
O1160      H1164   0.992       .  S
O1162      H1163   0.992       .  S
C1165      C1166   1.403       .  A
C1165      C1170   1.419       .  A
C1166      C1167   1.398       .  A
C1166      H1171   1.083       .  S
C1167      C1168   1.412       .  A
C1167      O1172   1.373       .  S
C1168      C1169   1.400       .  A
C1169      C1170   1.402       .  A
C1169      H1173   1.084       .  S
C1170      O1174   1.371       .  S
O1172      H1176   0.992       .  S
O1174      H1175   0.992       .  S
C1177      C1178   1.422       .  A
C1177      C1182   1.407       .  A
C1178      C1179   1.421   1_565  A
C1178      H1183   1.083       .  S
C1179      C1180   1.407       .  A
C1179      O1184   1.371       .  S
C1180      C1181   1.413       .  A
C1181      C1182   1.401   1_545  A
C1181      H1185   1.082       .  S
C1182      O1186   1.371       .  S
O1184      H1188   0.992       .  S
O1186      H1187   0.992   1_565  S
C1189      C1190   1.406       .  A
C1189      C1194   1.401       .  A
C1190      C1191   1.401       .  A
C1190      H1195   1.084       .  S
C1191      C1192   1.403       .  A
C1191      O1196   1.371       .  S
C1192      C1193   1.410       .  A
C1193      C1194   1.396       .  A
C1193      H1197   1.084       .  S
C1194      O1198   1.371       .  S
O1196      H1200   0.992       .  S
O1198      H1199   0.992       .  S
C1201      C1202   1.417       .  A
C1201      C1206   1.401       .  A
C1202      C1203   1.403       .  A
C1202      H1207   1.084       .  S
C1203      C1204   1.398       .  A
C1203      O1208   1.370       .  S
C1204      C1205   1.409       .  A
C1205      C1206   1.399       .  A
C1205      H1209   1.081       .  S
C1206      O1210   1.371       .  S
O1208      H1212   0.992       .  S
O1210      H1211   0.991       .  S
C1213      C1214   1.409       .  A
C1213      C1218   1.420       .  A
C1214      C1215   1.411   1_556  A
C1214      H1219   1.083       .  S
C1215      C1216   1.414       .  A
C1215      O1220   1.371       .  S
C1216      C1217   1.406       .  A
C1217      C1218   1.409   1_554  A
C1217      H1221   1.083       .  S
C1218      O1222   1.372       .  S
O1220      H1224   0.992       .  S
O1222      H1223   0.992       .  S
C1225      C1226   1.401   1_655  A
C1225      C1230   1.426       .  A
C1226      C1227   1.414       .  A
C1226      H1231   1.083       .  S
C1227      C1228   1.423       .  A
C1227      O1232   1.369       .  S
C1228      C1229   1.394       .  A
C1229      C1230   1.393   1_455  A
C1229      H1233   1.084       .  S
C1230      O1234   1.373       .  S
O1232      H1236   0.991       .  S
O1234      H1235   0.992       .  S
C1237      C1238   1.397       .  A
C1237      C1242   1.403       .  A
C1238      C1239   1.383       .  A
C1238      H1243   1.068       .  S
C1239      C1240   1.398       .  A
C1239      O1244   1.370       .  S
C1240      C1241   1.411       .  A
C1241      C1242   1.393       .  A
C1241      H1245   1.083       .  S
C1242      O1246   1.372       .  S
O1244      H1248   0.992       .  S
O1246      H1247   0.991       .  S
C1249      C1250   1.417       .  A
C1249      C1254   1.422       .  A
C1250      C1251   1.427       .  A
C1250      H1255   1.083       .  S
C1251      C1252   1.418       .  A
C1251      O1256   1.371       .  S
C1252      C1253   1.414       .  A
C1253      C1254   1.426       .  A
C1253      H1257   1.083       .  S
C1254      O1258   1.371       .  S
O1256      H1260   0.991       .  S
O1258      H1259   0.990       .  S
C1261      C1262   1.403       .  A
C1261      C1266   1.407       .  A
C1262      C1263   1.406   1_554  A
C1262      H1267   1.084       .  S
C1263      C1264   1.407       .  A
C1263      O1268   1.370       .  S
C1264      C1265   1.403       .  A
C1265      C1266   1.398   1_556  A
C1265      H1269   1.084       .  S
C1266      O1270   1.373       .  S
O1268      H1272   0.991       .  S
O1270      H1271   0.992       .  S
C1273      C1274   1.400       .  A
C1273      C1278   1.429       .  A
C1274      C1275   1.413       .  A
C1274      H1279   1.083       .  S
C1275      C1276   1.417       .  A
C1275      O1280   1.369       .  S
C1276      C1277   1.386       .  A
C1277      C1278   1.394       .  A
C1277      H1281   1.085       .  S
C1278      O1282   1.373       .  S
O1280      H1284   0.992       .  S
O1282      H1283   0.993       .  S
C1285      C1286   1.407       .  A
C1285      C1290   1.417       .  A
C1286      C1287   1.418       .  A
C1286      H1291   1.079       .  S
C1287      C1288   1.420       .  A
C1287      O1292   1.372       .  S
C1288      C1289   1.413       .  A
C1289      C1290   1.425       .  A
C1289      H1293   1.083       .  S
C1290      O1294   1.371       .  S
O1292      H1296   0.992       .  S
O1294      H1295   0.992       .  S
C1297      C1298   1.401       .  A
C1297      C1302   1.404       .  A
C1298      C1299   1.400       .  A
C1298      H1303   1.081       .  S
C1299      C1300   1.407       .  A
C1299      O1304   1.382       .  S
C1300      C1301   1.404       .  A
C1301      C1302   1.394       .  A
C1301      H1305   1.076       .  S
C1302      O1306   1.374       .  S
O1304      H1308   0.991       .  S
O1306      H1307   0.992       .  S
C1309      C1310   1.396       .  A
C1309      C1314   1.412       .  A
C1310      C1311   1.400       .  A
C1310      H1315   1.084       .  S
C1311      C1312   1.415       .  A
C1311      O1316   1.374       .  S
C1312      C1313   1.398       .  A
C1313      C1314   1.397       .  A
C1313      H1317   1.084       .  S
C1314      O1318   1.372       .  S
O1316      H1320   0.992       .  S
O1318      H1319   0.991       .  S
C1321      C1322   1.402       .  A
C1321      C1326   1.412       .  A
C1322      C1323   1.397   1_556  A
C1322      H1327   1.084       .  S
C1323      C1324   1.413       .  A
C1323      O1328   1.372       .  S
C1324      C1325   1.408       .  A
C1325      C1326   1.413   1_554  A
C1325      H1329   1.083       .  S
C1326      O1330   1.371       .  S
O1328      H1332   0.992       .  S
O1330      H1331   0.992       .  S
C1333      C1334   1.386       .  A
C1333      C1338   1.425       .  A
C1334      C1335   1.398   1_565  A
C1334      H1339   1.086       .  S
C1335      C1336   1.435       .  A
C1335      O1340   1.373       .  S
C1336      C1337   1.403   1_545  A
C1337      C1338   1.420       .  A
C1337      H1341   1.083       .  S
C1338      O1342   1.369       .  S
O1340      H1344   0.993       .  S
O1342      H1343   0.991       .  S
C1345      C1346   1.414       .  A
C1345      C1350   1.422       .  A
C1346      C1347   1.414       .  A
C1346      H1351   1.083       .  S
C1347      C1348   1.417       .  A
C1347      O1352   1.367       .  S
C1348      C1349   1.421       .  A
C1349      C1350   1.437       .  A
C1349      H1353   1.083       .  S
C1350      O1354   1.370       .  S
O1352      H1356   0.991       .  S
O1354      H1355   0.992       .  S
C1357      C1358   1.407       .  A
C1357      C1362   1.404       .  A
C1358      C1359   1.388       .  A
C1358      H1363   1.075       .  S
C1359      C1360   1.397       .  A
C1359      O1364   1.371       .  S
C1360      C1361   1.405       .  A
C1361      C1362   1.389       .  A
C1361      H1365   1.082       .  S
C1362      O1366   1.372       .  S
O1364      H1368   0.991       .  S
O1366      H1367   0.992       .  S
C1369      C1370   1.398       .  A
C1369      C1374   1.416       .  A
C1370      C1371   1.395       .  A
C1370      H1375   1.084       .  S
C1371      C1372   1.415       .  A
C1371      O1376   1.371       .  S
C1372      C1373   1.397       .  A
C1373      C1374   1.396       .  A
C1373      H1377   1.084       .  S
C1374      O1378   1.373       .  S
O1376      H1380   0.991       .  S
O1378      H1379   0.993       .  S
C1381      C1382   1.408       .  A
C1381      C1386   1.404       .  A
C1382      C1383   1.398       .  A
C1382      H1387   1.084       .  S
C1383      C1384   1.406       .  A
C1383      O1388   1.371       .  S
C1384      C1385   1.407       .  A
C1385      C1386   1.398       .  A
C1385      H1389   1.084       .  S
C1386      O1390   1.371       .  S
O1388      H1392   0.992       .  S
O1390      H1391   0.991       .  S
